'From Cuis7.7 [latest update: #7872] on 17 April 2026 at 8:31:28 pm'!
'Description Lively dataflow programming environment for real-time musical synthesis.'!
!provides: 'Signals' 1 531!
!requires: 'Audio' 1 1 nil!
!requires: 'JSON' 1 29 nil!
SystemOrganization addCategory: #'Signals-Kernel'!
SystemOrganization addCategory: #'Signals-Oscillators'!
SystemOrganization addCategory: #'Signals-Noise'!
SystemOrganization addCategory: #'Signals-Samples'!
SystemOrganization addCategory: #'Signals-Mix'!
SystemOrganization addCategory: #'Signals-Modulation'!
SystemOrganization addCategory: #'Signals-Envelopes'!
SystemOrganization addCategory: #'Signals-Filters'!
SystemOrganization addCategory: #'Signals-VA Filters'!
SystemOrganization addCategory: #'Signals-Shapers'!
SystemOrganization addCategory: #'Signals-Dynamics'!
SystemOrganization addCategory: #'Signals-FX'!
SystemOrganization addCategory: #'Signals-IO'!
SystemOrganization addCategory: #'Signals-Utility'!
SystemOrganization addCategory: #'Signals-Morphic-Widgets'!
SystemOrganization addCategory: #'Signals-Morphic-Controls'!
SystemOrganization addCategory: #'Signals-Morphic-Patches'!
SystemOrganization addCategory: #'Signals-Morphic-Support'!
SystemOrganization addCategory: #'Signals-Support'!
SystemOrganization addCategory: 'Signals-Trash'!


!classDefinition: #Control category: #'Signals-Kernel'!
ActiveModel subclass: #Control
	instanceVariableNames: 'base modulation lastValue printer default label'
	classVariableNames: ''
	poolDictionaries: ''
	category: 'Signals-Kernel'!
!classDefinition: 'Control class' category: #'Signals-Kernel'!
Control class
	instanceVariableNames: ''!

!classDefinition: #Choice category: #'Signals-Kernel'!
Control subclass: #Choice
	instanceVariableNames: 'options'
	classVariableNames: ''
	poolDictionaries: ''
	category: 'Signals-Kernel'!
!classDefinition: 'Choice class' category: #'Signals-Kernel'!
Choice class
	instanceVariableNames: ''!

!classDefinition: #Knob category: #'Signals-Kernel'!
Control subclass: #Knob
	instanceVariableNames: 'min max curve coarseStep fineStep'
	classVariableNames: ''
	poolDictionaries: ''
	category: 'Signals-Kernel'!
!classDefinition: 'Knob class' category: #'Signals-Kernel'!
Knob class
	instanceVariableNames: ''!

!classDefinition: #Toggle category: #'Signals-Kernel'!
Control subclass: #Toggle
	instanceVariableNames: ''
	classVariableNames: ''
	poolDictionaries: ''
	category: 'Signals-Kernel'!
!classDefinition: 'Toggle class' category: #'Signals-Kernel'!
Toggle class
	instanceVariableNames: ''!

!classDefinition: #Module category: #'Signals-Kernel'!
ActiveModel subclass: #Module
	instanceVariableNames: 'controls'
	classVariableNames: ''
	poolDictionaries: ''
	category: 'Signals-Kernel'!
!classDefinition: 'Module class' category: #'Signals-Kernel'!
Module class
	instanceVariableNames: ''!

!classDefinition: #Amp category: #'Signals-Dynamics'!
Module subclass: #Amp
	instanceVariableNames: 'input gain output inputRM'
	classVariableNames: ''
	poolDictionaries: ''
	category: 'Signals-Dynamics'!
!classDefinition: 'Amp class' category: #'Signals-Dynamics'!
Amp class
	instanceVariableNames: ''!

!classDefinition: #Compressor category: #'Signals-Dynamics'!
Module subclass: #Compressor
	instanceVariableNames: 'schpf rmslpf envelope inputL inputR inputSC outputL outputR aux'
	classVariableNames: ''
	poolDictionaries: ''
	category: 'Signals-Dynamics'!
!classDefinition: 'Compressor class' category: #'Signals-Dynamics'!
Compressor class
	instanceVariableNames: ''!

!classDefinition: #Gate category: #'Signals-Dynamics'!
Module subclass: #Gate
	instanceVariableNames: 'schpf rmslpf envelope inputL inputR inputSC outputL outputR aux'
	classVariableNames: ''
	poolDictionaries: ''
	category: 'Signals-Dynamics'!
!classDefinition: 'Gate class' category: #'Signals-Dynamics'!
Gate class
	instanceVariableNames: ''!

!classDefinition: #EG category: #'Signals-Envelopes'!
Module subclass: #EG
	instanceVariableNames: 'velocity stage value factor increment attack'
	classVariableNames: ''
	poolDictionaries: ''
	category: 'Signals-Envelopes'!
!classDefinition: 'EG class' category: #'Signals-Envelopes'!
EG class
	instanceVariableNames: ''!

!classDefinition: #AD category: #'Signals-Envelopes'!
EG subclass: #AD
	instanceVariableNames: 'decay'
	classVariableNames: ''
	poolDictionaries: ''
	category: 'Signals-Envelopes'!
!classDefinition: 'AD class' category: #'Signals-Envelopes'!
AD class
	instanceVariableNames: ''!

!classDefinition: #ADSR category: #'Signals-Envelopes'!
EG subclass: #ADSR
	instanceVariableNames: 'decay sustain release'
	classVariableNames: ''
	poolDictionaries: ''
	category: 'Signals-Envelopes'!
!classDefinition: 'ADSR class' category: #'Signals-Envelopes'!
ADSR class
	instanceVariableNames: ''!

!classDefinition: #AHD category: #'Signals-Envelopes'!
EG subclass: #AHD
	instanceVariableNames: 'hold holding decay'
	classVariableNames: ''
	poolDictionaries: ''
	category: 'Signals-Envelopes'!
!classDefinition: 'AHD class' category: #'Signals-Envelopes'!
AHD class
	instanceVariableNames: ''!

!classDefinition: #AR category: #'Signals-Envelopes'!
EG subclass: #AR
	instanceVariableNames: 'release'
	classVariableNames: ''
	poolDictionaries: ''
	category: 'Signals-Envelopes'!
!classDefinition: 'AR class' category: #'Signals-Envelopes'!
AR class
	instanceVariableNames: ''!

!classDefinition: #ASR category: #'Signals-Envelopes'!
EG subclass: #ASR
	instanceVariableNames: 'sustain release'
	classVariableNames: ''
	poolDictionaries: ''
	category: 'Signals-Envelopes'!
!classDefinition: 'ASR class' category: #'Signals-Envelopes'!
ASR class
	instanceVariableNames: ''!

!classDefinition: #Chorus category: #'Signals-FX'!
Module subclass: #Chorus
	instanceVariableNames: 'input outputL outputR phase delayLine tap1 tap2 tap3 lpfL lpfR'
	classVariableNames: ''
	poolDictionaries: ''
	category: 'Signals-FX'!
!classDefinition: 'Chorus class' category: #'Signals-FX'!
Chorus class
	instanceVariableNames: ''!

!classDefinition: #Ensemble category: #'Signals-FX'!
Module subclass: #Ensemble
	instanceVariableNames: 'input outputL outputR delayLine tap1 tap2 tap3 tap4 tap5 phase1 phase2 phase3 phase4 phase5 lpfL lpfR'
	classVariableNames: ''
	poolDictionaries: ''
	category: 'Signals-FX'!
!classDefinition: 'Ensemble class' category: #'Signals-FX'!
Ensemble class
	instanceVariableNames: ''!

!classDefinition: #StereoEcho category: #'Signals-FX'!
Module subclass: #StereoEcho
	instanceVariableNames: 'delayLineL tapL delayLineR tapR lpfL hpfL lsfL hsfL lpfR hpfR lsfR hsfR inputL inputR outputL outputR'
	classVariableNames: ''
	poolDictionaries: ''
	category: 'Signals-FX'!
!classDefinition: 'StereoEcho class' category: #'Signals-FX'!
StereoEcho class
	instanceVariableNames: ''!

!classDefinition: #StereoReverb category: #'Signals-FX'!
Module subclass: #StereoReverb
	instanceVariableNames: 'predelayLine predelayTap combsL combsR allpassesL allpassesR inputL inputR outputL outputR'
	classVariableNames: ''
	poolDictionaries: ''
	category: 'Signals-FX'!
!classDefinition: 'StereoReverb class' category: #'Signals-FX'!
StereoReverb class
	instanceVariableNames: ''!

!classDefinition: #Crossover category: #'Signals-Filters'!
Module subclass: #Crossover
	instanceVariableNames: 'lpf1 lpf2 hpf1 hpf2 input outputLow outputHigh'
	classVariableNames: ''
	poolDictionaries: ''
	category: 'Signals-Filters'!
!classDefinition: 'Crossover class' category: #'Signals-Filters'!
Crossover class
	instanceVariableNames: ''!

!classDefinition: #SVF category: #'Signals-Filters'!
Module subclass: #SVF
	instanceVariableNames: 's1 s2 input outputLP outputHP outputBP outputBPN'
	classVariableNames: ''
	poolDictionaries: ''
	category: 'Signals-Filters'!
!classDefinition: 'SVF class' category: #'Signals-Filters'!
SVF class
	instanceVariableNames: ''!

!classDefinition: #AudioIn category: #'Signals-IO'!
Module subclass: #AudioIn
	instanceVariableNames: 'buses outputL outputR meterLeftValue meterRightValue'
	classVariableNames: ''
	poolDictionaries: ''
	category: 'Signals-IO'!
!classDefinition: 'AudioIn class' category: #'Signals-IO'!
AudioIn class
	instanceVariableNames: ''!

!classDefinition: #AudioOut category: #'Signals-IO'!
Module subclass: #AudioOut
	instanceVariableNames: 'buses level levelLeft levelRight inputL inputR aux meterLeftValue meterRightValue enabled'
	classVariableNames: ''
	poolDictionaries: ''
	category: 'Signals-IO'!
!classDefinition: 'AudioOut class' category: #'Signals-IO'!
AudioOut class
	instanceVariableNames: ''!

!classDefinition: #ControlIn category: #'Signals-IO'!
Module subclass: #ControlIn
	instanceVariableNames: 'values lastValue'
	classVariableNames: ''
	poolDictionaries: ''
	category: 'Signals-IO'!
!classDefinition: 'ControlIn class' category: #'Signals-IO'!
ControlIn class
	instanceVariableNames: ''!

!classDefinition: #Generator category: #'Signals-Kernel'!
Module subclass: #Generator
	instanceVariableNames: 'output'
	classVariableNames: ''
	poolDictionaries: ''
	category: 'Signals-Kernel'!
!classDefinition: 'Generator class' category: #'Signals-Kernel'!
Generator class
	instanceVariableNames: ''!

!classDefinition: #TunedGenerator category: #'Signals-Kernel'!
Generator subclass: #TunedGenerator
	instanceVariableNames: 'note'
	classVariableNames: ''
	poolDictionaries: ''
	category: 'Signals-Kernel'!
!classDefinition: 'TunedGenerator class' category: #'Signals-Kernel'!
TunedGenerator class
	instanceVariableNames: ''!

!classDefinition: #Oscillator category: #'Signals-Oscillators'!
TunedGenerator subclass: #Oscillator
	instanceVariableNames: 'phase increment incrementRatio inputFM'
	classVariableNames: ''
	poolDictionaries: ''
	category: 'Signals-Oscillators'!
!classDefinition: 'Oscillator class' category: #'Signals-Oscillators'!
Oscillator class
	instanceVariableNames: ''!

!classDefinition: #OPN category: #'Signals-Oscillators'!
Oscillator subclass: #OPN
	instanceVariableNames: 'wave'
	classVariableNames: ''
	poolDictionaries: ''
	category: 'Signals-Oscillators'!
!classDefinition: 'OPN class' category: #'Signals-Oscillators'!
OPN class
	instanceVariableNames: ''!

!classDefinition: #Pulse category: #'Signals-Oscillators'!
Oscillator subclass: #Pulse
	instanceVariableNames: 'width inputPWM'
	classVariableNames: ''
	poolDictionaries: ''
	category: 'Signals-Oscillators'!
!classDefinition: 'Pulse class' category: #'Signals-Oscillators'!
Pulse class
	instanceVariableNames: ''!

!classDefinition: #Saw category: #'Signals-Oscillators'!
Oscillator subclass: #Saw
	instanceVariableNames: 'shape'
	classVariableNames: ''
	poolDictionaries: ''
	category: 'Signals-Oscillators'!
!classDefinition: 'Saw class' category: #'Signals-Oscillators'!
Saw class
	instanceVariableNames: ''!

!classDefinition: #Sine category: #'Signals-Oscillators'!
Oscillator subclass: #Sine
	instanceVariableNames: 'warp'
	classVariableNames: ''
	poolDictionaries: ''
	category: 'Signals-Oscillators'!
!classDefinition: 'Sine class' category: #'Signals-Oscillators'!
Sine class
	instanceVariableNames: ''!

!classDefinition: #TriSawPulse category: #'Signals-Oscillators'!
Oscillator subclass: #TriSawPulse
	instanceVariableNames: 'shape'
	classVariableNames: ''
	poolDictionaries: ''
	category: 'Signals-Oscillators'!
!classDefinition: 'TriSawPulse class' category: #'Signals-Oscillators'!
TriSawPulse class
	instanceVariableNames: ''!

!classDefinition: #Triangle category: #'Signals-Oscillators'!
Oscillator subclass: #Triangle
	instanceVariableNames: 'shape'
	classVariableNames: ''
	poolDictionaries: ''
	category: 'Signals-Oscillators'!
!classDefinition: 'Triangle class' category: #'Signals-Oscillators'!
Triangle class
	instanceVariableNames: ''!

!classDefinition: #Wavetable category: #'Signals-Samples'!
Oscillator subclass: #Wavetable
	instanceVariableNames: 'table frameSize position fft spectrumReal spectrumImaginary aux ticksToUpdate label'
	classVariableNames: 'Library'
	poolDictionaries: ''
	category: 'Signals-Samples'!
!classDefinition: 'Wavetable class' category: #'Signals-Samples'!
Wavetable class
	instanceVariableNames: ''!

!classDefinition: #Supersaw category: #'Signals-Oscillators'!
TunedGenerator subclass: #Supersaw
	instanceVariableNames: 'increment phases increments incrementRatio centerGain sideGain'
	classVariableNames: 'DetuneCurveLUT'
	poolDictionaries: ''
	category: 'Signals-Oscillators'!
!classDefinition: 'Supersaw class' category: #'Signals-Oscillators'!
Supersaw class
	instanceVariableNames: ''!

!classDefinition: #TonewheelOrgan category: #'Signals-Oscillators'!
TunedGenerator subclass: #TonewheelOrgan
	instanceVariableNames: 'phases frequencies amplitudes click random released'
	classVariableNames: ''
	poolDictionaries: ''
	category: 'Signals-Oscillators'!
!classDefinition: 'TonewheelOrgan class' category: #'Signals-Oscillators'!
TonewheelOrgan class
	instanceVariableNames: ''!

!classDefinition: #TransistorOrgan category: #'Signals-Oscillators'!
TunedGenerator subclass: #TransistorOrgan
	instanceVariableNames: 'phases frequencies amplitudes released filter'
	classVariableNames: ''
	poolDictionaries: ''
	category: 'Signals-Oscillators'!
!classDefinition: 'TransistorOrgan class' category: #'Signals-Oscillators'!
TransistorOrgan class
	instanceVariableNames: ''!

!classDefinition: #VOSIM category: #'Signals-Oscillators'!
TunedGenerator subclass: #VOSIM
	instanceVariableNames: 'carrierPhase formant1Phase formant2Phase carrierFrequency formant1Frequency formant2Frequency carrierShape'
	classVariableNames: ''
	poolDictionaries: ''
	category: 'Signals-Oscillators'!
!classDefinition: 'VOSIM class' category: #'Signals-Oscillators'!
VOSIM class
	instanceVariableNames: ''!

!classDefinition: #Multisample category: #'Signals-Samples'!
TunedGenerator subclass: #Multisample
	instanceVariableNames: 'keymap velocity offset sample tailSample label'
	classVariableNames: 'Library'
	poolDictionaries: ''
	category: 'Signals-Samples'!
!classDefinition: 'Multisample class' category: #'Signals-Samples'!
Multisample class
	instanceVariableNames: ''!

!classDefinition: #Sample category: #'Signals-Samples'!
TunedGenerator subclass: #Sample
	instanceVariableNames: 'buffer rate loopEnd loopLength offset speed warp released position tailPosition increment incrementRatio label'
	classVariableNames: 'Library'
	poolDictionaries: ''
	category: 'Signals-Samples'!
!classDefinition: 'Sample class' category: #'Signals-Samples'!
Sample class
	instanceVariableNames: ''!

!classDefinition: #ColoredNoise category: #'Signals-Noise'!
Generator subclass: #ColoredNoise
	instanceVariableNames: 'color state x1 y1 s1 s2 s3'
	classVariableNames: ''
	poolDictionaries: ''
	category: 'Signals-Noise'!
!classDefinition: 'ColoredNoise class' category: #'Signals-Noise'!
ColoredNoise class
	instanceVariableNames: ''!

!classDefinition: #SparseNoise category: #'Signals-Noise'!
Generator subclass: #SparseNoise
	instanceVariableNames: 'p d jitter random state'
	classVariableNames: ''
	poolDictionaries: ''
	category: 'Signals-Noise'!
!classDefinition: 'SparseNoise class' category: #'Signals-Noise'!
SparseNoise class
	instanceVariableNames: ''!

!classDefinition: #VelvetNoise category: #'Signals-Noise'!
Generator subclass: #VelvetNoise
	instanceVariableNames: 'period jitterRange bias energy random counter'
	classVariableNames: ''
	poolDictionaries: ''
	category: 'Signals-Noise'!
!classDefinition: 'VelvetNoise class' category: #'Signals-Noise'!
VelvetNoise class
	instanceVariableNames: ''!

!classDefinition: #SineSweep category: #'Signals-Utility'!
Generator subclass: #SineSweep
	instanceVariableNames: 'frequency phase startFrequency endFrequency'
	classVariableNames: ''
	poolDictionaries: ''
	category: 'Signals-Utility'!
!classDefinition: 'SineSweep class' category: #'Signals-Utility'!
SineSweep class
	instanceVariableNames: ''!

!classDefinition: #Transform category: #'Signals-Kernel'!
Module subclass: #Transform
	instanceVariableNames: 'input output'
	classVariableNames: ''
	poolDictionaries: ''
	category: 'Signals-Kernel'!
!classDefinition: 'Transform class' category: #'Signals-Kernel'!
Transform class
	instanceVariableNames: ''!

!classDefinition: #Limiter category: #'Signals-Dynamics'!
Transform subclass: #Limiter
	instanceVariableNames: 'peak ceiling release gain'
	classVariableNames: ''
	poolDictionaries: ''
	category: 'Signals-Dynamics'!
!classDefinition: 'Limiter class' category: #'Signals-Dynamics'!
Limiter class
	instanceVariableNames: ''!

!classDefinition: #Allpass category: #'Signals-FX'!
Transform subclass: #Allpass
	instanceVariableNames: 'delayLine tap gain'
	classVariableNames: ''
	poolDictionaries: ''
	category: 'Signals-FX'!
!classDefinition: 'Allpass class' category: #'Signals-FX'!
Allpass class
	instanceVariableNames: ''!

!classDefinition: #Comb category: #'Signals-FX'!
Transform subclass: #Comb
	instanceVariableNames: 'delayLine tap feedback damping x0'
	classVariableNames: ''
	poolDictionaries: ''
	category: 'Signals-FX'!
!classDefinition: 'Comb class' category: #'Signals-FX'!
Comb class
	instanceVariableNames: ''!

!classDefinition: #Echo category: #'Signals-FX'!
Transform subclass: #Echo
	instanceVariableNames: 'delayLine tap'
	classVariableNames: ''
	poolDictionaries: ''
	category: 'Signals-FX'!
!classDefinition: 'Echo class' category: #'Signals-FX'!
Echo class
	instanceVariableNames: ''!

!classDefinition: #Flanger category: #'Signals-FX'!
Transform subclass: #Flanger
	instanceVariableNames: 'phase delayLine tap lpf'
	classVariableNames: ''
	poolDictionaries: ''
	category: 'Signals-FX'!
!classDefinition: 'Flanger class' category: #'Signals-FX'!
Flanger class
	instanceVariableNames: ''!

!classDefinition: #Phaser category: #'Signals-FX'!
Transform subclass: #Phaser
	instanceVariableNames: 'phase x1 y1 lastOutput'
	classVariableNames: ''
	poolDictionaries: ''
	category: 'Signals-FX'!
!classDefinition: 'Phaser class' category: #'Signals-FX'!
Phaser class
	instanceVariableNames: ''!

!classDefinition: #PitchShifter category: #'Signals-FX'!
Transform subclass: #PitchShifter
	instanceVariableNames: 'delayLine1 delayLine2'
	classVariableNames: ''
	poolDictionaries: ''
	category: 'Signals-FX'!
!classDefinition: 'PitchShifter class' category: #'Signals-FX'!
PitchShifter class
	instanceVariableNames: ''!

!classDefinition: #Reverb category: #'Signals-FX'!
Transform subclass: #Reverb
	instanceVariableNames: 'predelayLine predelayTap combs allpasses mix'
	classVariableNames: ''
	poolDictionaries: ''
	category: 'Signals-FX'!
!classDefinition: 'Reverb class' category: #'Signals-FX'!
Reverb class
	instanceVariableNames: ''!

!classDefinition: #TapeEcho category: #'Signals-FX'!
Transform subclass: #TapeEcho
	instanceVariableNames: 'delayLine tap1 tap2 tap3 level1 level2 level3 feedback mix lpf hpf lsf hsf'
	classVariableNames: ''
	poolDictionaries: ''
	category: 'Signals-FX'!
!classDefinition: 'TapeEcho class' category: #'Signals-FX'!
TapeEcho class
	instanceVariableNames: ''!

!classDefinition: #Vibrato category: #'Signals-FX'!
Transform subclass: #Vibrato
	instanceVariableNames: 'phase delayLine tap'
	classVariableNames: ''
	poolDictionaries: ''
	category: 'Signals-FX'!
!classDefinition: 'Vibrato class' category: #'Signals-FX'!
Vibrato class
	instanceVariableNames: ''!

!classDefinition: #BPF category: #'Signals-Filters'!
Transform subclass: #BPF
	instanceVariableNames: 'biquad'
	classVariableNames: ''
	poolDictionaries: ''
	category: 'Signals-Filters'!
!classDefinition: 'BPF class' category: #'Signals-Filters'!
BPF class
	instanceVariableNames: ''!

!classDefinition: #BSF category: #'Signals-Filters'!
Transform subclass: #BSF
	instanceVariableNames: 'biquad'
	classVariableNames: ''
	poolDictionaries: ''
	category: 'Signals-Filters'!
!classDefinition: 'BSF class' category: #'Signals-Filters'!
BSF class
	instanceVariableNames: ''!

!classDefinition: #EQ3 category: #'Signals-Filters'!
Transform subclass: #EQ3
	instanceVariableNames: 'lowPassLow highPassMid lowPassMid highPassHigh aux'
	classVariableNames: ''
	poolDictionaries: ''
	category: 'Signals-Filters'!
!classDefinition: 'EQ3 class' category: #'Signals-Filters'!
EQ3 class
	instanceVariableNames: ''!

!classDefinition: #EQ5 category: #'Signals-Filters'!
Transform subclass: #EQ5
	instanceVariableNames: 'lowShelf bell1 bell2 bell3 highShelf'
	classVariableNames: ''
	poolDictionaries: ''
	category: 'Signals-Filters'!
!classDefinition: 'EQ5 class' category: #'Signals-Filters'!
EQ5 class
	instanceVariableNames: ''!

!classDefinition: #HPF category: #'Signals-Filters'!
Transform subclass: #HPF
	instanceVariableNames: 'biquad'
	classVariableNames: ''
	poolDictionaries: ''
	category: 'Signals-Filters'!
!classDefinition: 'HPF class' category: #'Signals-Filters'!
HPF class
	instanceVariableNames: ''!

!classDefinition: #LPF category: #'Signals-Filters'!
Transform subclass: #LPF
	instanceVariableNames: 'biquad'
	classVariableNames: ''
	poolDictionaries: ''
	category: 'Signals-Filters'!
!classDefinition: 'LPF class' category: #'Signals-Filters'!
LPF class
	instanceVariableNames: ''!

!classDefinition: #Transform2x category: #'Signals-Kernel'!
Transform subclass: #Transform2x
	instanceVariableNames: 'oversampler'
	classVariableNames: ''
	poolDictionaries: ''
	category: 'Signals-Kernel'!
!classDefinition: 'Transform2x class' category: #'Signals-Kernel'!
Transform2x class
	instanceVariableNames: ''!

!classDefinition: #TubeSaturator category: #'Signals-Shapers'!
Transform2x subclass: #TubeSaturator
	instanceVariableNames: 'prehpf prelpf drive postgain postlpf dcblock'
	classVariableNames: ''
	poolDictionaries: ''
	category: 'Signals-Shapers'!
!classDefinition: 'TubeSaturator class' category: #'Signals-Shapers'!
TubeSaturator class
	instanceVariableNames: ''!

!classDefinition: #Waveshaper category: #'Signals-Shapers'!
Transform2x subclass: #Waveshaper
	instanceVariableNames: 'pregain bias dc postgain dry'
	classVariableNames: ''
	poolDictionaries: ''
	category: 'Signals-Shapers'!
!classDefinition: 'Waveshaper class' category: #'Signals-Shapers'!
Waveshaper class
	instanceVariableNames: ''!

!classDefinition: #DiodeClipper category: #'Signals-Shapers'!
Waveshaper subclass: #DiodeClipper
	instanceVariableNames: ''
	classVariableNames: ''
	poolDictionaries: ''
	category: 'Signals-Shapers'!
!classDefinition: 'DiodeClipper class' category: #'Signals-Shapers'!
DiodeClipper class
	instanceVariableNames: ''!

!classDefinition: #HardClipper category: #'Signals-Shapers'!
Waveshaper subclass: #HardClipper
	instanceVariableNames: ''
	classVariableNames: ''
	poolDictionaries: ''
	category: 'Signals-Shapers'!
!classDefinition: 'HardClipper class' category: #'Signals-Shapers'!
HardClipper class
	instanceVariableNames: ''!

!classDefinition: #SoftClipper category: #'Signals-Shapers'!
Waveshaper subclass: #SoftClipper
	instanceVariableNames: ''
	classVariableNames: ''
	poolDictionaries: ''
	category: 'Signals-Shapers'!
!classDefinition: 'SoftClipper class' category: #'Signals-Shapers'!
SoftClipper class
	instanceVariableNames: ''!

!classDefinition: #Wavefolder category: #'Signals-Shapers'!
Waveshaper subclass: #Wavefolder
	instanceVariableNames: ''
	classVariableNames: ''
	poolDictionaries: ''
	category: 'Signals-Shapers'!
!classDefinition: 'Wavefolder class' category: #'Signals-Shapers'!
Wavefolder class
	instanceVariableNames: ''!

!classDefinition: #Korg35HPF category: #'Signals-VA Filters'!
Transform2x subclass: #Korg35HPF
	instanceVariableNames: 's1 s2 s3 α α₀ β₂ β₃ k frequency resonance'
	classVariableNames: ''
	poolDictionaries: ''
	category: 'Signals-VA Filters'!
!classDefinition: 'Korg35HPF class' category: #'Signals-VA Filters'!
Korg35HPF class
	instanceVariableNames: ''!

!classDefinition: #Korg35LPF category: #'Signals-VA Filters'!
Transform2x subclass: #Korg35LPF
	instanceVariableNames: 's1 s2 s3 α α₀ β₂ β₃ k frequency resonance'
	classVariableNames: ''
	poolDictionaries: ''
	category: 'Signals-VA Filters'!
!classDefinition: 'Korg35LPF class' category: #'Signals-VA Filters'!
Korg35LPF class
	instanceVariableNames: ''!

!classDefinition: #Decimator category: #'Signals-Shapers'!
Transform subclass: #Decimator
	instanceVariableNames: 'quantization downsample holdCount heldValue mix'
	classVariableNames: ''
	poolDictionaries: ''
	category: 'Signals-Shapers'!
!classDefinition: 'Decimator class' category: #'Signals-Shapers'!
Decimator class
	instanceVariableNames: ''!

!classDefinition: #Overdrive category: #'Signals-Shapers'!
Transform subclass: #Overdrive
	instanceVariableNames: 'pregain postgain'
	classVariableNames: ''
	poolDictionaries: ''
	category: 'Signals-Shapers'!
!classDefinition: 'Overdrive class' category: #'Signals-Shapers'!
Overdrive class
	instanceVariableNames: ''!

!classDefinition: #TapeSaturator category: #'Signals-Shapers'!
Transform subclass: #TapeSaturator
	instanceVariableNames: 'prehpf drive nonlinearityGain tone bias dc postgain postlpf'
	classVariableNames: ''
	poolDictionaries: ''
	category: 'Signals-Shapers'!
!classDefinition: 'TapeSaturator class' category: #'Signals-Shapers'!
TapeSaturator class
	instanceVariableNames: ''!

!classDefinition: #DiodeLadder2 category: 'Signals-Trash'!
Transform subclass: #DiodeLadder2
	instanceVariableNames: 's1 s2 s3 s4 vc1 vc2 vc3 vc4 vout k g'
	classVariableNames: ''
	poolDictionaries: ''
	category: 'Signals-Trash'!
!classDefinition: 'DiodeLadder2 class' category: 'Signals-Trash'!
DiodeLadder2 class
	instanceVariableNames: ''!

!classDefinition: #SqueakReverb category: 'Signals-Trash'!
Transform subclass: #SqueakReverb
	instanceVariableNames: 'buffer position delays gains mix'
	classVariableNames: ''
	poolDictionaries: ''
	category: 'Signals-Trash'!
!classDefinition: 'SqueakReverb class' category: 'Signals-Trash'!
SqueakReverb class
	instanceVariableNames: ''!

!classDefinition: #Balance category: #'Signals-Mix'!
Module subclass: #Balance
	instanceVariableNames: 'inputA inputB outputL outputR'
	classVariableNames: ''
	poolDictionaries: ''
	category: 'Signals-Mix'!
!classDefinition: 'Balance class' category: #'Signals-Mix'!
Balance class
	instanceVariableNames: ''!

!classDefinition: #Crossfader category: #'Signals-Mix'!
Module subclass: #Crossfader
	instanceVariableNames: 'inputA inputB output'
	classVariableNames: ''
	poolDictionaries: ''
	category: 'Signals-Mix'!
!classDefinition: 'Crossfader class' category: #'Signals-Mix'!
Crossfader class
	instanceVariableNames: ''!

!classDefinition: #Mixer category: #'Signals-Mix'!
Module subclass: #Mixer
	instanceVariableNames: 'inputA inputB output'
	classVariableNames: ''
	poolDictionaries: ''
	category: 'Signals-Mix'!
!classDefinition: 'Mixer class' category: #'Signals-Mix'!
Mixer class
	instanceVariableNames: ''!

!classDefinition: #Mixer4 category: #'Signals-Mix'!
Module subclass: #Mixer4
	instanceVariableNames: 'inputA inputB inputC inputD output aux'
	classVariableNames: ''
	poolDictionaries: ''
	category: 'Signals-Mix'!
!classDefinition: 'Mixer4 class' category: #'Signals-Mix'!
Mixer4 class
	instanceVariableNames: ''!

!classDefinition: #Pan category: #'Signals-Mix'!
Module subclass: #Pan
	instanceVariableNames: 'input outputL outputR'
	classVariableNames: ''
	poolDictionaries: ''
	category: 'Signals-Mix'!
!classDefinition: 'Pan class' category: #'Signals-Mix'!
Pan class
	instanceVariableNames: ''!

!classDefinition: #StereoMatrix category: #'Signals-Mix'!
Module subclass: #StereoMatrix
	instanceVariableNames: 'inputA inputB outputL outputR aux'
	classVariableNames: ''
	poolDictionaries: ''
	category: 'Signals-Mix'!
!classDefinition: 'StereoMatrix class' category: #'Signals-Mix'!
StereoMatrix class
	instanceVariableNames: ''!

!classDefinition: #Attenuator category: #'Signals-Modulation'!
Module subclass: #Attenuator
	instanceVariableNames: 'value'
	classVariableNames: ''
	poolDictionaries: ''
	category: 'Signals-Modulation'!
!classDefinition: 'Attenuator class' category: #'Signals-Modulation'!
Attenuator class
	instanceVariableNames: ''!

!classDefinition: #Attenuverter category: #'Signals-Modulation'!
Module subclass: #Attenuverter
	instanceVariableNames: 'value'
	classVariableNames: ''
	poolDictionaries: ''
	category: 'Signals-Modulation'!
!classDefinition: 'Attenuverter class' category: #'Signals-Modulation'!
Attenuverter class
	instanceVariableNames: ''!

!classDefinition: #EnvelopeFollower category: #'Signals-Modulation'!
Module subclass: #EnvelopeFollower
	instanceVariableNames: 'input envelope'
	classVariableNames: ''
	poolDictionaries: ''
	category: 'Signals-Modulation'!
!classDefinition: 'EnvelopeFollower class' category: #'Signals-Modulation'!
EnvelopeFollower class
	instanceVariableNames: ''!

!classDefinition: #KeyTracker category: #'Signals-Modulation'!
Module subclass: #KeyTracker
	instanceVariableNames: 'note'
	classVariableNames: ''
	poolDictionaries: ''
	category: 'Signals-Modulation'!
!classDefinition: 'KeyTracker class' category: #'Signals-Modulation'!
KeyTracker class
	instanceVariableNames: ''!

!classDefinition: #LFO category: #'Signals-Modulation'!
Module subclass: #LFO
	instanceVariableNames: 'shape bipolar speed offset mode phase heldValue seed random randomValue'
	classVariableNames: ''
	poolDictionaries: ''
	category: 'Signals-Modulation'!
!classDefinition: 'LFO class' category: #'Signals-Modulation'!
LFO class
	instanceVariableNames: ''!

!classDefinition: #LogAttenuator category: #'Signals-Modulation'!
Module subclass: #LogAttenuator
	instanceVariableNames: 'value'
	classVariableNames: ''
	poolDictionaries: ''
	category: 'Signals-Modulation'!
!classDefinition: 'LogAttenuator class' category: #'Signals-Modulation'!
LogAttenuator class
	instanceVariableNames: ''!

!classDefinition: #VelocityTracker category: #'Signals-Modulation'!
Module subclass: #VelocityTracker
	instanceVariableNames: 'velocity'
	classVariableNames: ''
	poolDictionaries: ''
	category: 'Signals-Modulation'!
!classDefinition: 'VelocityTracker class' category: #'Signals-Modulation'!
VelocityTracker class
	instanceVariableNames: ''!

!classDefinition: #DiodeLadder category: 'Signals-Trash'!
Module subclass: #DiodeLadder
	instanceVariableNames: 's1 s2 s3 s4 ρ G1 G2 G3 G4 γ k input outputLP4 outputLP3 outputLP2 outputLP1'
	classVariableNames: ''
	poolDictionaries: ''
	category: 'Signals-Trash'!
!classDefinition: 'DiodeLadder class' category: 'Signals-Trash'!
DiodeLadder class
	instanceVariableNames: ''!

!classDefinition: #Oscilloscope category: #'Signals-Utility'!
Module subclass: #Oscilloscope
	instanceVariableNames: 'input delayLine'
	classVariableNames: ''
	poolDictionaries: ''
	category: 'Signals-Utility'!
!classDefinition: 'Oscilloscope class' category: #'Signals-Utility'!
Oscilloscope class
	instanceVariableNames: ''!

!classDefinition: #Spectrogram category: #'Signals-Utility'!
Module subclass: #Spectrogram
	instanceVariableNames: 'input image position stft hop buffer bufferIndex colormap frequencyScale logSpectrum'
	classVariableNames: ''
	poolDictionaries: ''
	category: 'Signals-Utility'!
!classDefinition: 'Spectrogram class' category: #'Signals-Utility'!
Spectrogram class
	instanceVariableNames: ''!

!classDefinition: #SpectrumAnalyzer category: #'Signals-Utility'!
Module subclass: #SpectrumAnalyzer
	instanceVariableNames: 'input spectrum stft buffer bufferIndex'
	classVariableNames: ''
	poolDictionaries: ''
	category: 'Signals-Utility'!
!classDefinition: 'SpectrumAnalyzer class' category: #'Signals-Utility'!
SpectrumAnalyzer class
	instanceVariableNames: ''!

!classDefinition: #Vectorscope category: #'Signals-Utility'!
Module subclass: #Vectorscope
	instanceVariableNames: 'inputX inputY image color'
	classVariableNames: ''
	poolDictionaries: ''
	category: 'Signals-Utility'!
!classDefinition: 'Vectorscope class' category: #'Signals-Utility'!
Vectorscope class
	instanceVariableNames: ''!

!classDefinition: #MoogLPF category: #'Signals-VA Filters'!
Module subclass: #MoogLPF
	instanceVariableNames: 'y0 y1 y2 y3 y4 input outputLP4 outputLP3 outputLP2 outputLP1'
	classVariableNames: ''
	poolDictionaries: ''
	category: 'Signals-VA Filters'!
!classDefinition: 'MoogLPF class' category: #'Signals-VA Filters'!
MoogLPF class
	instanceVariableNames: ''!

!classDefinition: #MoogLadder category: #'Signals-VA Filters'!
Module subclass: #MoogLadder
	instanceVariableNames: 's1 s2 s3 s4 input outputLP4 outputLP3 outputLP2 outputLP1'
	classVariableNames: ''
	poolDictionaries: ''
	category: 'Signals-VA Filters'!
!classDefinition: 'MoogLadder class' category: #'Signals-VA Filters'!
MoogLadder class
	instanceVariableNames: ''!

!classDefinition: #OberheimSVF category: #'Signals-VA Filters'!
Module subclass: #OberheimSVF
	instanceVariableNames: 's1 s2 input outputLP outputHP outputBP outputBS'
	classVariableNames: ''
	poolDictionaries: ''
	category: 'Signals-VA Filters'!
!classDefinition: 'OberheimSVF class' category: #'Signals-VA Filters'!
OberheimSVF class
	instanceVariableNames: ''!

!classDefinition: #ControlOld category: 'Signals-Trash'!
ActiveModel subclass: #ControlOld
	instanceVariableNames: 'min max curve base modulation lastValue printer default label coarseStep fineStep'
	classVariableNames: ''
	poolDictionaries: ''
	category: 'Signals-Trash'!
!classDefinition: 'ControlOld class' category: 'Signals-Trash'!
ControlOld class
	instanceVariableNames: ''!

!classDefinition: #ControlPanel category: #'Signals-Morphic-Controls'!
LinearLayoutMorph subclass: #ControlPanel
	instanceVariableNames: ''
	classVariableNames: ''
	poolDictionaries: ''
	category: 'Signals-Morphic-Controls'!
!classDefinition: 'ControlPanel class' category: #'Signals-Morphic-Controls'!
ControlPanel class
	instanceVariableNames: ''!

!classDefinition: #RoundedLinearLayoutMorph category: #'Signals-Morphic-Support'!
LinearLayoutMorph subclass: #RoundedLinearLayoutMorph
	instanceVariableNames: ''
	classVariableNames: ''
	poolDictionaries: ''
	category: 'Signals-Morphic-Support'!
!classDefinition: 'RoundedLinearLayoutMorph class' category: #'Signals-Morphic-Support'!
RoundedLinearLayoutMorph class
	instanceVariableNames: ''!

!classDefinition: #PluggableChoiceMorph category: #'Signals-Morphic-Support'!
PluggableMorph subclass: #PluggableChoiceMorph
	instanceVariableNames: 'font options getter setter'
	classVariableNames: ''
	poolDictionaries: ''
	category: 'Signals-Morphic-Support'!
!classDefinition: 'PluggableChoiceMorph class' category: #'Signals-Morphic-Support'!
PluggableChoiceMorph class
	instanceVariableNames: ''!

!classDefinition: #PluggableToggleMorph category: #'Signals-Morphic-Support'!
PluggableMorph subclass: #PluggableToggleMorph
	instanceVariableNames: 'font getter setter label'
	classVariableNames: ''
	poolDictionaries: ''
	category: 'Signals-Morphic-Support'!
!classDefinition: 'PluggableToggleMorph class' category: #'Signals-Morphic-Support'!
PluggableToggleMorph class
	instanceVariableNames: ''!

!classDefinition: #ChoiceControlMorph category: #'Signals-Morphic-Controls'!
BoxMorph subclass: #ChoiceControlMorph
	instanceVariableNames: 'control color font'
	classVariableNames: ''
	poolDictionaries: ''
	category: 'Signals-Morphic-Controls'!
!classDefinition: 'ChoiceControlMorph class' category: #'Signals-Morphic-Controls'!
ChoiceControlMorph class
	instanceVariableNames: ''!

!classDefinition: #ControlMorph category: #'Signals-Morphic-Controls'!
BoxMorph subclass: #ControlMorph
	instanceVariableNames: 'control color'
	classVariableNames: ''
	poolDictionaries: ''
	category: 'Signals-Morphic-Controls'!
!classDefinition: 'ControlMorph class' category: #'Signals-Morphic-Controls'!
ControlMorph class
	instanceVariableNames: ''!

!classDefinition: #KnobControlMorph category: #'Signals-Morphic-Controls'!
ControlMorph subclass: #KnobControlMorph
	instanceVariableNames: ''
	classVariableNames: ''
	poolDictionaries: ''
	category: 'Signals-Morphic-Controls'!
!classDefinition: 'KnobControlMorph class' category: #'Signals-Morphic-Controls'!
KnobControlMorph class
	instanceVariableNames: ''!

!classDefinition: #SliderControlMorph category: #'Signals-Morphic-Controls'!
ControlMorph subclass: #SliderControlMorph
	instanceVariableNames: ''
	classVariableNames: ''
	poolDictionaries: ''
	category: 'Signals-Morphic-Controls'!
!classDefinition: 'SliderControlMorph class' category: #'Signals-Morphic-Controls'!
SliderControlMorph class
	instanceVariableNames: ''!

!classDefinition: #SupersawControlMorph category: #'Signals-Morphic-Controls'!
ControlMorph subclass: #SupersawControlMorph
	instanceVariableNames: 'colors phases'
	classVariableNames: ''
	poolDictionaries: ''
	category: 'Signals-Morphic-Controls'!
!classDefinition: 'SupersawControlMorph class' category: #'Signals-Morphic-Controls'!
SupersawControlMorph class
	instanceVariableNames: ''!

!classDefinition: #TextualControlMorph category: #'Signals-Morphic-Controls'!
ControlMorph subclass: #TextualControlMorph
	instanceVariableNames: 'font contents'
	classVariableNames: ''
	poolDictionaries: ''
	category: 'Signals-Morphic-Controls'!
!classDefinition: 'TextualControlMorph class' category: #'Signals-Morphic-Controls'!
TextualControlMorph class
	instanceVariableNames: ''!

!classDefinition: #VariableWaveControlMorph category: #'Signals-Morphic-Controls'!
ControlMorph subclass: #VariableWaveControlMorph
	instanceVariableNames: 'currentShape wave'
	classVariableNames: ''
	poolDictionaries: ''
	category: 'Signals-Morphic-Controls'!
!classDefinition: 'VariableWaveControlMorph class' category: #'Signals-Morphic-Controls'!
VariableWaveControlMorph class
	instanceVariableNames: ''!

!classDefinition: #SymmetricWaveshaperControlMorph category: #'Signals-Morphic-Controls'!
VariableWaveControlMorph subclass: #SymmetricWaveshaperControlMorph
	instanceVariableNames: 'image'
	classVariableNames: ''
	poolDictionaries: ''
	category: 'Signals-Morphic-Controls'!
!classDefinition: 'SymmetricWaveshaperControlMorph class' category: #'Signals-Morphic-Controls'!
SymmetricWaveshaperControlMorph class
	instanceVariableNames: ''!

!classDefinition: #WavetableControlMorph category: #'Signals-Morphic-Controls'!
ControlMorph subclass: #WavetableControlMorph
	instanceVariableNames: 'table frameSize currentPosition'
	classVariableNames: ''
	poolDictionaries: ''
	category: 'Signals-Morphic-Controls'!
!classDefinition: 'WavetableControlMorph class' category: #'Signals-Morphic-Controls'!
WavetableControlMorph class
	instanceVariableNames: ''!

!classDefinition: #DualControlMorph category: #'Signals-Morphic-Controls'!
BoxMorph subclass: #DualControlMorph
	instanceVariableNames: 'control1 control2'
	classVariableNames: ''
	poolDictionaries: ''
	category: 'Signals-Morphic-Controls'!
!classDefinition: 'DualControlMorph class' category: #'Signals-Morphic-Controls'!
DualControlMorph class
	instanceVariableNames: ''!

!classDefinition: #DynamicsActivityMorph category: #'Signals-Morphic-Controls'!
DualControlMorph subclass: #DynamicsActivityMorph
	instanceVariableNames: 'envelopeBuffer gainReductionBuffer currentPosition'
	classVariableNames: ''
	poolDictionaries: ''
	category: 'Signals-Morphic-Controls'!
!classDefinition: 'DynamicsActivityMorph class' category: #'Signals-Morphic-Controls'!
DynamicsActivityMorph class
	instanceVariableNames: ''!

!classDefinition: #ToggleControlMorph category: #'Signals-Morphic-Controls'!
BoxMorph subclass: #ToggleControlMorph
	instanceVariableNames: 'control color font label'
	classVariableNames: ''
	poolDictionaries: ''
	category: 'Signals-Morphic-Controls'!
!classDefinition: 'ToggleControlMorph class' category: #'Signals-Morphic-Controls'!
ToggleControlMorph class
	instanceVariableNames: ''!

!classDefinition: #XYControlMorph category: #'Signals-Morphic-Controls'!
BoxMorph subclass: #XYControlMorph
	instanceVariableNames: 'controlX controlY'
	classVariableNames: ''
	poolDictionaries: ''
	category: 'Signals-Morphic-Controls'!
!classDefinition: 'XYControlMorph class' category: #'Signals-Morphic-Controls'!
XYControlMorph class
	instanceVariableNames: ''!

!classDefinition: #FilterControlMorph category: #'Signals-Morphic-Controls'!
XYControlMorph subclass: #FilterControlMorph
	instanceVariableNames: 'color mode'
	classVariableNames: ''
	poolDictionaries: ''
	category: 'Signals-Morphic-Controls'!
!classDefinition: 'FilterControlMorph class' category: #'Signals-Morphic-Controls'!
FilterControlMorph class
	instanceVariableNames: ''!

!classDefinition: #LFOControlMorph category: #'Signals-Morphic-Controls'!
XYControlMorph subclass: #LFOControlMorph
	instanceVariableNames: 'color lfo samples currentPosition'
	classVariableNames: ''
	poolDictionaries: ''
	category: 'Signals-Morphic-Controls'!
!classDefinition: 'LFOControlMorph class' category: #'Signals-Morphic-Controls'!
LFOControlMorph class
	instanceVariableNames: ''!

!classDefinition: #WaveshaperControlMorph category: #'Signals-Morphic-Controls'!
XYControlMorph subclass: #WaveshaperControlMorph
	instanceVariableNames: 'color mode wave valueX valueY image'
	classVariableNames: ''
	poolDictionaries: ''
	category: 'Signals-Morphic-Controls'!
!classDefinition: 'WaveshaperControlMorph class' category: #'Signals-Morphic-Controls'!
WaveshaperControlMorph class
	instanceVariableNames: ''!

!classDefinition: #XYVariableWaveControlMorph category: #'Signals-Morphic-Controls'!
XYControlMorph subclass: #XYVariableWaveControlMorph
	instanceVariableNames: 'color baseColor mode wave valueX valueY'
	classVariableNames: ''
	poolDictionaries: ''
	category: 'Signals-Morphic-Controls'!
!classDefinition: 'XYVariableWaveControlMorph class' category: #'Signals-Morphic-Controls'!
XYVariableWaveControlMorph class
	instanceVariableNames: ''!

!classDefinition: #LFOControlMorphOld category: 'Signals-Trash'!
XYControlMorph subclass: #LFOControlMorphOld
	instanceVariableNames: 'color lfo currentPhase'
	classVariableNames: ''
	poolDictionaries: ''
	category: 'Signals-Trash'!
!classDefinition: 'LFOControlMorphOld class' category: 'Signals-Trash'!
LFOControlMorphOld class
	instanceVariableNames: ''!

!classDefinition: #PinMorph category: #'Signals-Morphic-Patches'!
BoxMorph subclass: #PinMorph
	instanceVariableNames: 'color selector connections focused level'
	classVariableNames: ''
	poolDictionaries: ''
	category: 'Signals-Morphic-Patches'!
!classDefinition: 'PinMorph class' category: #'Signals-Morphic-Patches'!
PinMorph class
	instanceVariableNames: ''!

!classDefinition: #InputPinMorph category: #'Signals-Morphic-Patches'!
PinMorph subclass: #InputPinMorph
	instanceVariableNames: ''
	classVariableNames: ''
	poolDictionaries: ''
	category: 'Signals-Morphic-Patches'!
!classDefinition: 'InputPinMorph class' category: #'Signals-Morphic-Patches'!
InputPinMorph class
	instanceVariableNames: ''!

!classDefinition: #AudioInputPinMorph category: #'Signals-Morphic-Patches'!
InputPinMorph subclass: #AudioInputPinMorph
	instanceVariableNames: ''
	classVariableNames: ''
	poolDictionaries: ''
	category: 'Signals-Morphic-Patches'!
!classDefinition: 'AudioInputPinMorph class' category: #'Signals-Morphic-Patches'!
AudioInputPinMorph class
	instanceVariableNames: ''!

!classDefinition: #ControlInputPinMorph category: #'Signals-Morphic-Patches'!
InputPinMorph subclass: #ControlInputPinMorph
	instanceVariableNames: ''
	classVariableNames: ''
	poolDictionaries: ''
	category: 'Signals-Morphic-Patches'!
!classDefinition: 'ControlInputPinMorph class' category: #'Signals-Morphic-Patches'!
ControlInputPinMorph class
	instanceVariableNames: ''!

!classDefinition: #OutputPinMorph category: #'Signals-Morphic-Patches'!
PinMorph subclass: #OutputPinMorph
	instanceVariableNames: 'wires'
	classVariableNames: ''
	poolDictionaries: ''
	category: 'Signals-Morphic-Patches'!
!classDefinition: 'OutputPinMorph class' category: #'Signals-Morphic-Patches'!
OutputPinMorph class
	instanceVariableNames: ''!

!classDefinition: #AudioOutputPinMorph category: #'Signals-Morphic-Patches'!
OutputPinMorph subclass: #AudioOutputPinMorph
	instanceVariableNames: 'buffer'
	classVariableNames: ''
	poolDictionaries: ''
	category: 'Signals-Morphic-Patches'!
!classDefinition: 'AudioOutputPinMorph class' category: #'Signals-Morphic-Patches'!
AudioOutputPinMorph class
	instanceVariableNames: ''!

!classDefinition: #ControlOutputPinMorph category: #'Signals-Morphic-Patches'!
OutputPinMorph subclass: #ControlOutputPinMorph
	instanceVariableNames: ''
	classVariableNames: ''
	poolDictionaries: ''
	category: 'Signals-Morphic-Patches'!
!classDefinition: 'ControlOutputPinMorph class' category: #'Signals-Morphic-Patches'!
ControlOutputPinMorph class
	instanceVariableNames: ''!

!classDefinition: #ScrollerMorph category: #'Signals-Morphic-Support'!
BoxMorph subclass: #ScrollerMorph
	instanceVariableNames: 'horizontal vertical scrollable'
	classVariableNames: ''
	poolDictionaries: ''
	category: 'Signals-Morphic-Support'!
!classDefinition: 'ScrollerMorph class' category: #'Signals-Morphic-Support'!
ScrollerMorph class
	instanceVariableNames: ''!

!classDefinition: #ZoomerMorph category: #'Signals-Morphic-Support'!
BoxMorph subclass: #ZoomerMorph
	instanceVariableNames: ''
	classVariableNames: ''
	poolDictionaries: ''
	category: 'Signals-Morphic-Support'!
!classDefinition: 'ZoomerMorph class' category: #'Signals-Morphic-Support'!
ZoomerMorph class
	instanceVariableNames: ''!

!classDefinition: #OscilloscopeMorph category: #'Signals-Morphic-Widgets'!
BoxMorph subclass: #OscilloscopeMorph
	instanceVariableNames: 'buffer color'
	classVariableNames: ''
	poolDictionaries: ''
	category: 'Signals-Morphic-Widgets'!
!classDefinition: 'OscilloscopeMorph class' category: #'Signals-Morphic-Widgets'!
OscilloscopeMorph class
	instanceVariableNames: ''!

!classDefinition: #PhosphorDisplayMorph category: #'Signals-Morphic-Widgets'!
BoxMorph subclass: #PhosphorDisplayMorph
	instanceVariableNames: 'image'
	classVariableNames: ''
	poolDictionaries: ''
	category: 'Signals-Morphic-Widgets'!
!classDefinition: 'PhosphorDisplayMorph class' category: #'Signals-Morphic-Widgets'!
PhosphorDisplayMorph class
	instanceVariableNames: ''!

!classDefinition: #PlotMorph category: #'Signals-Morphic-Widgets'!
BoxMorph subclass: #PlotMorph
	instanceVariableNames: 'functions domain colors max min font'
	classVariableNames: ''
	poolDictionaries: ''
	category: 'Signals-Morphic-Widgets'!
!classDefinition: 'PlotMorph class' category: #'Signals-Morphic-Widgets'!
PlotMorph class
	instanceVariableNames: ''!

!classDefinition: #RollingMeterMorph category: #'Signals-Morphic-Widgets'!
BoxMorph subclass: #RollingMeterMorph
	instanceVariableNames: 'buffer position meterBlock color'
	classVariableNames: ''
	poolDictionaries: ''
	category: 'Signals-Morphic-Widgets'!
!classDefinition: 'RollingMeterMorph class' category: #'Signals-Morphic-Widgets'!
RollingMeterMorph class
	instanceVariableNames: ''!

!classDefinition: #RollingWaveformMorph category: #'Signals-Morphic-Widgets'!
BoxMorph subclass: #RollingWaveformMorph
	instanceVariableNames: 'samples currentPosition color bipolar'
	classVariableNames: ''
	poolDictionaries: ''
	category: 'Signals-Morphic-Widgets'!
!classDefinition: 'RollingWaveformMorph class' category: #'Signals-Morphic-Widgets'!
RollingWaveformMorph class
	instanceVariableNames: ''!

!classDefinition: #SampleWaveformMorph category: #'Signals-Morphic-Widgets'!
BoxMorph subclass: #SampleWaveformMorph
	instanceVariableNames: 'sample color image lastPosition'
	classVariableNames: ''
	poolDictionaries: ''
	category: 'Signals-Morphic-Widgets'!
!classDefinition: 'SampleWaveformMorph class' category: #'Signals-Morphic-Widgets'!
SampleWaveformMorph class
	instanceVariableNames: ''!

!classDefinition: #SpectrumMorph category: #'Signals-Morphic-Widgets'!
BoxMorph subclass: #SpectrumMorph
	instanceVariableNames: 'color spectrum frequencyScale displayMode'
	classVariableNames: ''
	poolDictionaries: ''
	category: 'Signals-Morphic-Widgets'!
!classDefinition: 'SpectrumMorph class' category: #'Signals-Morphic-Widgets'!
SpectrumMorph class
	instanceVariableNames: ''!

!classDefinition: #WaterfallMorph category: #'Signals-Morphic-Widgets'!
BoxMorph subclass: #WaterfallMorph
	instanceVariableNames: 'image position'
	classVariableNames: ''
	poolDictionaries: ''
	category: 'Signals-Morphic-Widgets'!
!classDefinition: 'WaterfallMorph class' category: #'Signals-Morphic-Widgets'!
WaterfallMorph class
	instanceVariableNames: ''!

!classDefinition: #EGControlMorph category: 'Signals-Trash'!
BoxMorph subclass: #EGControlMorph
	instanceVariableNames: 'color attack'
	classVariableNames: ''
	poolDictionaries: ''
	category: 'Signals-Trash'!
!classDefinition: 'EGControlMorph class' category: 'Signals-Trash'!
EGControlMorph class
	instanceVariableNames: ''!

!classDefinition: #ADControlMorph category: 'Signals-Trash'!
EGControlMorph subclass: #ADControlMorph
	instanceVariableNames: 'decay'
	classVariableNames: ''
	poolDictionaries: ''
	category: 'Signals-Trash'!
!classDefinition: 'ADControlMorph class' category: 'Signals-Trash'!
ADControlMorph class
	instanceVariableNames: ''!

!classDefinition: #ADSRControlMorph category: 'Signals-Trash'!
EGControlMorph subclass: #ADSRControlMorph
	instanceVariableNames: 'decay sustain release'
	classVariableNames: ''
	poolDictionaries: ''
	category: 'Signals-Trash'!
!classDefinition: 'ADSRControlMorph class' category: 'Signals-Trash'!
ADSRControlMorph class
	instanceVariableNames: ''!

!classDefinition: #AHDControlMorph category: 'Signals-Trash'!
EGControlMorph subclass: #AHDControlMorph
	instanceVariableNames: 'hold decay'
	classVariableNames: ''
	poolDictionaries: ''
	category: 'Signals-Trash'!
!classDefinition: 'AHDControlMorph class' category: 'Signals-Trash'!
AHDControlMorph class
	instanceVariableNames: ''!

!classDefinition: #ARControlMorph category: 'Signals-Trash'!
EGControlMorph subclass: #ARControlMorph
	instanceVariableNames: 'release'
	classVariableNames: ''
	poolDictionaries: ''
	category: 'Signals-Trash'!
!classDefinition: 'ARControlMorph class' category: 'Signals-Trash'!
ARControlMorph class
	instanceVariableNames: ''!

!classDefinition: #ASRControlMorph category: 'Signals-Trash'!
EGControlMorph subclass: #ASRControlMorph
	instanceVariableNames: 'sustain release'
	classVariableNames: ''
	poolDictionaries: ''
	category: 'Signals-Trash'!
!classDefinition: 'ASRControlMorph class' category: 'Signals-Trash'!
ASRControlMorph class
	instanceVariableNames: ''!

!classDefinition: #PianoKeyboardMorph category: 'Signals-Trash'!
BoxMorph subclass: #PianoKeyboardMorph
	instanceVariableNames: 'pressedKeys firstMidiKey queue'
	classVariableNames: ''
	poolDictionaries: ''
	category: 'Signals-Trash'!
!classDefinition: 'PianoKeyboardMorph class' category: 'Signals-Trash'!
PianoKeyboardMorph class
	instanceVariableNames: ''!

!classDefinition: #TriangleButtonMorph category: 'Signals-Trash'!
BoxMorph subclass: #TriangleButtonMorph
	instanceVariableNames: 'focused'
	classVariableNames: ''
	poolDictionaries: ''
	category: 'Signals-Trash'!
!classDefinition: 'TriangleButtonMorph class' category: 'Signals-Trash'!
TriangleButtonMorph class
	instanceVariableNames: ''!

!classDefinition: #VideoMorph category: 'Signals-Trash'!
BoxMorph subclass: #VideoMorph
	instanceVariableNames: 'screen bits video position increment'
	classVariableNames: ''
	poolDictionaries: ''
	category: 'Signals-Trash'!
!classDefinition: 'VideoMorph class' category: 'Signals-Trash'!
VideoMorph class
	instanceVariableNames: ''!

!classDefinition: #WaveformMorph category: 'Signals-Trash'!
BoxMorph subclass: #WaveformMorph
	instanceVariableNames: 'waveform color image'
	classVariableNames: ''
	poolDictionaries: ''
	category: 'Signals-Trash'!
!classDefinition: 'WaveformMorph class' category: 'Signals-Trash'!
WaveformMorph class
	instanceVariableNames: ''!

!classDefinition: #WaveformScrollingMorph category: 'Signals-Trash'!
BoxMorph subclass: #WaveformScrollingMorph
	instanceVariableNames: 'image position color'
	classVariableNames: ''
	poolDictionaries: ''
	category: 'Signals-Trash'!
!classDefinition: 'WaveformScrollingMorph class' category: 'Signals-Trash'!
WaveformScrollingMorph class
	instanceVariableNames: ''!

!classDefinition: #ConnectorMorph category: #'Signals-Morphic-Patches'!
PlacedMorph subclass: #ConnectorMorph
	instanceVariableNames: 'source color dashed'
	classVariableNames: ''
	poolDictionaries: ''
	category: 'Signals-Morphic-Patches'!
!classDefinition: 'ConnectorMorph class' category: #'Signals-Morphic-Patches'!
ConnectorMorph class
	instanceVariableNames: ''!

!classDefinition: #PatchMorph category: #'Signals-Morphic-Patches'!
PlacedMorph subclass: #PatchMorph
	instanceVariableNames: 'modules'
	classVariableNames: ''
	poolDictionaries: ''
	category: 'Signals-Morphic-Patches'!
!classDefinition: 'PatchMorph class' category: #'Signals-Morphic-Patches'!
PatchMorph class
	instanceVariableNames: ''!

!classDefinition: #PatchableMorph category: #'Signals-Morphic-Patches'!
PlacedMorph subclass: #PatchableMorph
	instanceVariableNames: 'inputsArea outputsArea body flap title model'
	classVariableNames: ''
	poolDictionaries: ''
	category: 'Signals-Morphic-Patches'!
!classDefinition: 'PatchableMorph class' category: #'Signals-Morphic-Patches'!
PatchableMorph class
	instanceVariableNames: ''!

!classDefinition: #MoverMorph category: #'Signals-Morphic-Support'!
PlacedMorph subclass: #MoverMorph
	instanceVariableNames: 'target offset'
	classVariableNames: ''
	poolDictionaries: ''
	category: 'Signals-Morphic-Support'!
!classDefinition: 'MoverMorph class' category: #'Signals-Morphic-Support'!
MoverMorph class
	instanceVariableNames: ''!

!classDefinition: #WireMorph category: #'Signals-Morphic-Patches'!
Morph subclass: #WireMorph
	instanceVariableNames: 'source target color'
	classVariableNames: ''
	poolDictionaries: ''
	category: 'Signals-Morphic-Patches'!
!classDefinition: 'WireMorph class' category: #'Signals-Morphic-Patches'!
WireMorph class
	instanceVariableNames: ''!

!classDefinition: #Bus category: #'Signals-IO'!
Object subclass: #Bus
	instanceVariableNames: 'leftBuffer rightBuffer'
	classVariableNames: ''
	poolDictionaries: ''
	category: 'Signals-IO'!
!classDefinition: 'Bus class' category: #'Signals-IO'!
Bus class
	instanceVariableNames: ''!

!classDefinition: #AllpassComb category: #'Signals-Support'!
Object subclass: #AllpassComb
	instanceVariableNames: 'buffer position feedback'
	classVariableNames: ''
	poolDictionaries: ''
	category: 'Signals-Support'!
!classDefinition: 'AllpassComb class' category: #'Signals-Support'!
AllpassComb class
	instanceVariableNames: ''!

!classDefinition: #Biquad category: #'Signals-Support'!
Object subclass: #Biquad
	instanceVariableNames: 'a0 a1 a2 b1 b2 x1 x2 y1 y2'
	classVariableNames: ''
	poolDictionaries: ''
	category: 'Signals-Support'!
!classDefinition: 'Biquad class' category: #'Signals-Support'!
Biquad class
	instanceVariableNames: ''!

!classDefinition: #DelayLine category: #'Signals-Support'!
Object subclass: #DelayLine
	instanceVariableNames: 'buffer position'
	classVariableNames: ''
	poolDictionaries: ''
	category: 'Signals-Support'!
!classDefinition: 'DelayLine class' category: #'Signals-Support'!
DelayLine class
	instanceVariableNames: ''!

!classDefinition: #DelayTap category: #'Signals-Support'!
Object subclass: #DelayTap
	instanceVariableNames: 'delayLine delay increment'
	classVariableNames: ''
	poolDictionaries: ''
	category: 'Signals-Support'!
!classDefinition: 'DelayTap class' category: #'Signals-Support'!
DelayTap class
	instanceVariableNames: ''!

!classDefinition: #DelayTapC category: #'Signals-Support'!
DelayTap subclass: #DelayTapC
	instanceVariableNames: ''
	classVariableNames: ''
	poolDictionaries: ''
	category: 'Signals-Support'!
!classDefinition: 'DelayTapC class' category: #'Signals-Support'!
DelayTapC class
	instanceVariableNames: ''!

!classDefinition: #DelayTapL category: #'Signals-Support'!
DelayTap subclass: #DelayTapL
	instanceVariableNames: ''
	classVariableNames: ''
	poolDictionaries: ''
	category: 'Signals-Support'!
!classDefinition: 'DelayTapL class' category: #'Signals-Support'!
DelayTapL class
	instanceVariableNames: ''!

!classDefinition: #DelayTapT1 category: #'Signals-Support'!
DelayTap subclass: #DelayTapT1
	instanceVariableNames: 'x1 y1'
	classVariableNames: ''
	poolDictionaries: ''
	category: 'Signals-Support'!
!classDefinition: 'DelayTapT1 class' category: #'Signals-Support'!
DelayTapT1 class
	instanceVariableNames: ''!

!classDefinition: #DelayTapT2 category: #'Signals-Support'!
DelayTap subclass: #DelayTapT2
	instanceVariableNames: 'x1 x2 y1 y2'
	classVariableNames: ''
	poolDictionaries: ''
	category: 'Signals-Support'!
!classDefinition: 'DelayTapT2 class' category: #'Signals-Support'!
DelayTapT2 class
	instanceVariableNames: ''!

!classDefinition: #FFT category: #'Signals-Support'!
Object subclass: #FFT
	instanceVariableNames: 'nu n sinTable permTable realData imagData'
	classVariableNames: ''
	poolDictionaries: ''
	category: 'Signals-Support'!
!classDefinition: 'FFT class' category: #'Signals-Support'!
FFT class
	instanceVariableNames: ''!

!classDefinition: #FIR category: #'Signals-Support'!
Object subclass: #FIR
	instanceVariableNames: 'coefficients state'
	classVariableNames: ''
	poolDictionaries: ''
	category: 'Signals-Support'!
!classDefinition: 'FIR class' category: #'Signals-Support'!
FIR class
	instanceVariableNames: ''!

!classDefinition: #IIR category: #'Signals-Support'!
Object subclass: #IIR
	instanceVariableNames: 'numerators denominators stateIn stateOut'
	classVariableNames: ''
	poolDictionaries: ''
	category: 'Signals-Support'!
!classDefinition: 'IIR class' category: #'Signals-Support'!
IIR class
	instanceVariableNames: ''!

!classDefinition: #LagrangeOversampler2x category: #'Signals-Support'!
Object subclass: #LagrangeOversampler2x
	instanceVariableNames: 'u0 u1 u2 u3 d0 d1 d2 d3'
	classVariableNames: ''
	poolDictionaries: ''
	category: 'Signals-Support'!
!classDefinition: 'LagrangeOversampler2x class' category: #'Signals-Support'!
LagrangeOversampler2x class
	instanceVariableNames: ''!

!classDefinition: #LowpassComb category: #'Signals-Support'!
Object subclass: #LowpassComb
	instanceVariableNames: 'buffer position state feedback damp'
	classVariableNames: ''
	poolDictionaries: ''
	category: 'Signals-Support'!
!classDefinition: 'LowpassComb class' category: #'Signals-Support'!
LowpassComb class
	instanceVariableNames: ''!

!classDefinition: #MultiTapDelayLine category: #'Signals-Support'!
Object subclass: #MultiTapDelayLine
	instanceVariableNames: 'buffer position delays gains mix'
	classVariableNames: ''
	poolDictionaries: ''
	category: 'Signals-Support'!
!classDefinition: 'MultiTapDelayLine class' category: #'Signals-Support'!
MultiTapDelayLine class
	instanceVariableNames: ''!

!classDefinition: #OnePole category: #'Signals-Support'!
Object subclass: #OnePole
	instanceVariableNames: 'pole y'
	classVariableNames: ''
	poolDictionaries: ''
	category: 'Signals-Support'!
!classDefinition: 'OnePole class' category: #'Signals-Support'!
OnePole class
	instanceVariableNames: ''!

!classDefinition: #Polyphase13TapOversampler2x category: #'Signals-Support'!
Object subclass: #Polyphase13TapOversampler2x
	instanceVariableNames: 'x1 x2 x3 x4 x5 x6 d1 d2 d3 d4 d5 d6 e1'
	classVariableNames: ''
	poolDictionaries: ''
	category: 'Signals-Support'!
!classDefinition: 'Polyphase13TapOversampler2x class' category: #'Signals-Support'!
Polyphase13TapOversampler2x class
	instanceVariableNames: ''!

!classDefinition: #STFT category: #'Signals-Support'!
Object subclass: #STFT
	instanceVariableNames: 'fft window spectrum aux'
	classVariableNames: ''
	poolDictionaries: ''
	category: 'Signals-Support'!
!classDefinition: 'STFT class' category: #'Signals-Support'!
STFT class
	instanceVariableNames: ''!

!classDefinition: #WAVFileReader category: #'Signals-Support'!
Object subclass: #WAVFileReader
	instanceVariableNames: 'stream channels bitsPerSample sampleRate leftSamples rightSamples loopStart loopEnd'
	classVariableNames: ''
	poolDictionaries: ''
	category: 'Signals-Support'!
!classDefinition: 'WAVFileReader class' category: #'Signals-Support'!
WAVFileReader class
	instanceVariableNames: ''!


!Control commentStamp: '<historical>' prior: 0!
A control is a an abstraction of a knob or switch that changes a parameter.

Controls have a 'base value' typically set by the user in the UI, and a 'modulated value' that depends on external modulations (for example modulation from an LFO or an envelope, simulating the action of a hand moving the knob).!

!Choice commentStamp: '<historical>' prior: 0!
A choice is a discrete control that can take values in a finite list.!

!Knob commentStamp: '<historical>' prior: 0!
Knobs are continuous controls with values that can vary within a range. Knobs can have different curves, e.g. linear (like a control to smoothly morph the wave shape of an oscillator) or logarithmic (like a volume or pitch knob).!

!Toggle commentStamp: '<historical>' prior: 0!
A toggle is a discrete control with only two possible values: true or false.!

!Module commentStamp: 'len 29/Mar/2026 00:07:25' prior: 0!
This is an abstract superclass for signal processing modules.

A module has a list of controls (or parameters), that can be changed by the user via the UI or can be modulated by other modules. The controls of a module are created on initialization in #initializeControls.

Modules can also have input and output sample buffers, and they process samples in blocks of fixed size. The default block size is 128 samples (2.9 ms at the default sampling rate of 44.1 kHz), which results in a control rate of 344 Hz. Before processing each block with the #tick message, the internal state of the module must be updated with the #update message.

The playing loop for a patch of connected modules looks like this:
1) Send #clear to each module to clear the control modulations for a new cycle;
2) Iterate over the modules in order, and send #update followed by #tick to each one.

The message #update updates the internal state of the module depending on the controls, which could be modulated and could vary at any time. The message #tick processes one block of samples, reading from the input buffers and writing to the output buffers.!

!Amp commentStamp: '<historical>' prior: 0!
An amplifier just multiplies the input signal by a gain parameter, typically modulated by an envolope. When the gain parameter changes, the actual gain is varied smoothly by sample to avoid clicks or zipper noise.!

!Compressor commentStamp: '<historical>' prior: 0!
A general compressor module with sidechain input.!

!Gate commentStamp: '<historical>' prior: 0!
A gate module with sidechain input. Analogous to Compressor but, instead of applying gain reduction to signals *above* a threshold, it silences signals *below* a threshold.!

!EG commentStamp: '<historical>' prior: 0!
Abstract superclass for envelope generators.!

!AD commentStamp: '<historical>' prior: 0!
Attack-Decay envelope generator.!

!ADSR commentStamp: '<historical>' prior: 0!
Attack-Decay-Sustain-Release envelope generator.!

!AHD commentStamp: '<historical>' prior: 0!
Attack-Hold-Decay envelope generator.!

!AR commentStamp: '<historical>' prior: 0!
Attack-Release envelope generator.!

!ASR commentStamp: '<historical>' prior: 0!
Attack-Sustain-Release envelope generator.!

!Chorus commentStamp: '<historical>' prior: 0!
This is a classic mono-to-stereo chorus effect. It mixes the original signal with 3 delayed copies (tipically 10 to 20 ms). An internal LFO modulates the delay times, creating slight pitch variations that simulate the effect of multiple voices or instruments playing at unison.!

!Ensemble commentStamp: '<historical>' prior: 0!
The ensemble effect is similar to chorus, but it mixes more delay taps (5 instead of 3) and the modulation of the delay times is decorrelated (each delay time is modulated independently with LFO speeds in inharmonic ratios).!

!StereoEcho commentStamp: '<historical>' prior: 0!
This is a stereo echo effect with feedback and ping pong mode.!

!StereoReverb commentStamp: '<historical>' prior: 0!
This is a reverb effect based on Freeverb. It consists of 8 damped combs (lowpass feedback comb filters) in parallel followed by 4 Schroeder allpasses in series.!

!Crossover commentStamp: '<historical>' prior: 0!
This is a Linkwitz-Riley 4th-order (LR4) crossover filter.

An LR4 crossover splits a signal into two complementary bands (low and high) that sum back to a flat magnitude response with no phase artifacts at the crossover point. This makes it the standard building block for multiband processing: the two output bands can be processed independently (compressed, saturated, widened, etc.) and then summed back to reconstruct the signal cleanly.

Internally, LR4 consists of two parallel paths, each a pair of cascaded 2nd-order Butterworth biquads at the same crossover frequency. The LP path produces the low band and the HP path produces the high band. Cascading two 2nd-order Butterworth filters gives a 4th-order rolloff (24 dB/oct) with a specific phase relationship: both LP and HP accumulate −180° of phase shift at the crossover frequency, which is precisely what guarantees flat magnitude when the bands are summed. Q is fixed at 1/√2 ≈ 0.707 (the Butterworth condition) and is not exposed as a parameter — changing it would break the complementary summing property.

The only parameter is the crossover frequency, which sets the −6 dB point of each band. At the crossover frequency, LP and HP each contribute −6 dB, summing back to 0 dB.​​​​​​​​​​​​​​​​!

!SVF commentStamp: '<historical>' prior: 0!
This is a state variable filter with a 12 dB/oct slope (2 poles). It has outputs for LP, HP, BP and BPN (normalized band-pass: BP / Q) modes. Based on stmlib/dsp/filter.h by Emilie Gillet.

It implements the TPT (Topology-Preserving Transform) SVF, commonly called the Cytomic SVF or Simper SVF, from Andy Simper’s 2011 paper and Vadim Zavalishin’s "The Art of VA Filter Design".!

!AudioIn commentStamp: '<historical>' prior: 0!
This module receives a stereo signal from a bus.!

!AudioOut commentStamp: '<historical>' prior: 0!
This module takes a mono or stereo signal, applies volume level and pan, and sends it to a bus. The default output is the master bus (port 0).!

!ControlIn commentStamp: '<historical>' prior: 0!
This module produces a control signal from values received from an external source, for example MIDI CC messages.!

!Generator commentStamp: '<historical>' prior: 0!
A signal generator produces a stream of samples for a mono audio signal. It is similar to a Stream, but its values are 32-bit floats. See subclasses.!

!TunedGenerator commentStamp: '<historical>' prior: 0!
A tuned generator is a signal generator with pitch, such as an oscillator. See subclasses.!

!Oscillator commentStamp: '<historical>' prior: 0!
Abstract superclass for simple oscillators that can be defined by a single phase value that is incremented at each sampling step.!

!OPN commentStamp: '<historical>' prior: 0!
This oscillator emulates the oscillators of the Yamaha sound chips YM2414 (used in the TX81Z and DX11 synthesizers) and YM2612 (used in the Sega Mega Drive game console). It has a choice of 8 waveforms.!

!Pulse commentStamp: '<historical>' prior: 0!
This is a virtual analog oscillator. It generates a pulse wave applying PolyBLEP to prevent aliasing. This oscillator supports audio-rate pulse width modulation (PWM).

For a duty cycle of 50% (1/2 width), the pulse wave is a square wave and consists of a fundamental sine wave frequency (f) and an infinite series of odd harmonics (3f, 5f, 7f, ...). The harmonics have amplitudes inversely proportional to their harmonic number 1/n (e.g., the 3rd harmonic has 1/3 the amplitude of the fundamental).

Pulse waves with duty cycles other than 50% have both odd and even harmonics. Specific duty cycles can eliminate certain harmonics; for example, a 25% duty cycle (1/4 width) causes every fourth harmonic to be missing.

Pulse waves with a 50% duty cycle sound hollow, like a clarinet, while narrower pulses (smaller duty cycles) sound more nasal, resembling an oboe.!

!Saw commentStamp: '<historical>' prior: 0!
This is a virtual analog oscillator. It generates a variable-slope saw that morphs between falling saw, triangle and rising saw, applying PolyBLEP and PolyBLAMP to prevent aliasing.

A sawtooth wave contains a both even and odd harmonics (2f, 3f, 4f, ...) of the fundamental frequency (f). The amplitude of each harmonic is inversely proportional to its harmonic number (e.g., the 3rd harmonic 3f is 1/3 the amplitude of the fundamental), creating a gradual, harmonic-rich decay.!

!Sine commentStamp: '<historical>' prior: 0!
This is a sine wave oscillator with variable warping produced by self-phase modulation. At zero warp, it's a sine. As the warp parameter moves from 0 to 1, integer harmonics (both odd and even) are added up to about the 6th harmonic.!

!TriSawPulse commentStamp: '<historical>' prior: 0!
This is a virtual analog oscillator that can morph between triangle, saw and pulse waves. It uses PolyBLEP and PolyBLAMP to prevent aliasing.!

!Triangle commentStamp: '<historical>' prior: 0!
This is a virtual analog triangle oscillator that uses PolyBLAMP for antialiasing. It morphs from a pure triangle to a sine wave.

A triangle wave consists of only odd harmonics (f, 3f, 5f, 7f, ...) of the fundamental frequency, similar to a square wave, but its harmonic amplitudes decrease much faster, proportional to the inverse square of the harmonic number (1/n²). This results in a brighter tone than a sine wave but mellower than a square wave, with 12 dB per octave roll-off.!

!Wavetable commentStamp: '<historical>' prior: 0!
Antialiased wavetable oscillator using spectral resynthesis.

The oscillator is initialized from a multi-frame wavetable (e.g., 256 frames × 2048 samples). Each frame is transformed to the frequency domain via FFT and stored as a complex spectrum.

When the table position or pitch change, a bandlimited frame is synthesized on-the-fly by interpolating between neighboring spectra and discarding all frequency bins above the Nyquist limit for the current playback frequency. The resulting spectrum is transformed back to the time domain using an inverse FFT.

Audio samples are then generated by phase-based interpolation within this bandlimited frame.!

!Supersaw commentStamp: '<historical>' prior: 0!
Emulation of the Roland JP-8000 and JP-8080 supersaw oscillator based on Adam Szabo's thesis [1]. It consists of 7 detuned saws. It is not a perfect emulation, e.g. it uses antialiased PolyBLEP saws, instead of oversampling a digital saw and applying a high pass filter as the original.

[1] Szabo, Adam; "How to Emulate the Super Saw"; Skolan för datavetenskap och kommunikation, Kungliga Tekniska högskolan, 2010.!

!TonewheelOrgan commentStamp: '<historical>' prior: 0!
This is a monophonic simplified model of a Hammond organ.!

!TransistorOrgan commentStamp: '<historical>' prior: 0!
This is a monophonic simplified model of a transistor organ. It has the drawbars of a Vox Continental.!

!VOSIM commentStamp: '<historical>' prior: 0!
This is a VOSIM (VOcal SIMulation) oscillator based on the synthesis method developed by Kaegi and Tempelaars in the 1970s. The oscillator consists of two sine waves multiplied by and sync'ed to a carrier. Ported from plaits/dsp/oscillator/vosim_oscillator.h by Emilie Gillet.!

!Multisample commentStamp: '<historical>' prior: 0!
A multisample is the basis of a rompler (from "ROM" and "sampler"). It generates sounds from a set of recordings of an instrument playing different notes at different velocities. Given a MIDI note and velocity value, it chooses the sample closest to the desired note and velocity and repitches it by playing it faster or slower.
!

!Sample commentStamp: 'len 9/Apr/2026 23:16:22' prior: 0!
A sample is a recorded signal. It has a buffer of recorded samples, a playback rate, and optional loop points. Samples can be played at different rates to produce different pitches.!

!ColoredNoise commentStamp: '<historical>' prior: 0!
A colored noise generator. The color parameter blends between different noise sources: centered at 0.0 it generates white noise, at -0.5 pink noise, at -1.0 brown noise, and at 1.0 blue noise.!

!SparseNoise commentStamp: 'len 1/Feb/2026 16:16:01' prior: 0!
Dust / Crackle Noise Generator. Produces sparse impulsive noise by generating a Poisson-distributed impulse train and feeding it into a short decaying state.

At low density the output consists of isolated clicks. Increasing density creates crackle and finally continuous noisy bursts. The decay control sets the temporal memory of each impulse, moving the sound from single-sample impulses to ringing, colored noise.

This source is particularly effective for exciting resonant filters, waveguides, and physical-model style structures.

Parameters:
    - Density: average number of impulses per second (log-scaled)
    - Decay: impulse memory / ring time
    - Amplitude Jitter: randomness of impulse amplitude

State:
    - Decaying accumulator holding impulse energy
!

!VelvetNoise commentStamp: 'len 1/Feb/2026 19:09:07' prior: 0!
Velvet Noise Generator. Generates sparse bipolar impulses (+1 / -1) that are approximately evenly distributed in time, producing spectrally flat noise with reduced hiss compared to white noise.

Unlike purely random impulse noise, velvet noise avoids clustering, resulting in predictable energy and clean excitation characteristics. With low jitter it approaches a periodic impulse train; with higher jitter it becomes increasingly noise-like.

Common uses include reverb excitation, waveguide and Karplus–Strong synthesis, and controlled percussive noise sources.

Parameters:
    - Sparsity (Period): average distance between impulses
    - Jitter: random deviation from uniform spacing
    - Polarity Bias: bias toward positive or negative impulses
    - Amp: amplitude of the impulses

State:
    - Sample counter until next impulse!

!Transform commentStamp: 'len 4/Feb/2026 00:25:27' prior: 0!
Abstract superclass for unary transforms, i.e. modules with one audio input and one audio output, that transform the audio signal sample-by-sample (for each input sample, they apply a function to produce an output sample). Subclasses can just implement #value:.!

!Limiter commentStamp: 'len 10/Feb/2026 14:50:17' prior: 0!
A feed-forward peak limiter with fast attack, adjustable release, and smoothed gain.
Prevents signal peaks from exceeding a fixed ceiling without altering level below threshold.!

!Flanger commentStamp: 'len 25/Mar/2026 21:09:44' prior: 0!
This is a classic flanger effect. It mixes the original signal with a copy delayed by a very short time (~ 1 ms). An internal LFO modulates the delay time, creating sweeping comb filtering, which is also enhanced with feedback.!

!Phaser commentStamp: '<historical>' prior: 0!
A phaser (phase shifter) splits a signal, shifts the phase of one path using all-pass filters, and recombines them to create a sweeping, "whooshing" swirling sound. This process creates notches and peaks in the frequency spectrum that move over time.!

!PitchShifter commentStamp: '<historical>' prior: 0!
Time-domain pitch shifter based on two modulated delay lines with crossfading windows. This is the algorithm of the Eventide H3000 Ultra-Harmonizer.

Pitch-shifting is achieved by modulating a delay line: the write pointer always advances at normal speed, but the read pointer advances faster (pitch up) or slower (pitch down). This causes discontinuities when the read pointer catches up or falls too far behind, but the discontinuities are hidden by crossfading between two delay lines running the same algorithm in parallel with a phase offset of 180°.!

!Reverb commentStamp: '<historical>' prior: 0!
This is a reverb effect based on Freeverb. It consists of 8 damped combs (lowpass feedback comb filters) in parallel followed by 4 Schroeder allpasses in series.!

!TapeEcho commentStamp: '<historical>' prior: 0!
This is a 3-tap tape echo effect inspired by the Roland RE-201 Space Echo and other tape delays.!

!Vibrato commentStamp: '<historical>' prior: 0!
The vibrato effect is produced by passing the original signal through a delay line. An internal LFO modulates the delay time, creating periodic pitch variations (Doppler effect).!

!BPF commentStamp: '<historical>' prior: 0!
This is a second order (12 dB/oct) band-pass filter implemented with a biquad.!

!BSF commentStamp: '<historical>' prior: 0!
This is a second order (12 dB/oct) band-stop or notch filter implemented with a biquad.!

!EQ3 commentStamp: '<historical>' prior: 0!
Three-band DJ-style equalizer. This is a crossover-based EQ that splits the audio into three fixed frequency bands (low, mid, high) using Linkwitz-Riley filters. Each band has an independent gain control. Crossover frequencies: Low/Mid at 250 Hz, and Mid/High at 2.5 kHz.

The implementation uses 4 second-order Linkwitz-Riley biquad filters (Q=0.707) configured as two crossover points, with parallel band processing and summing.!

!EQ5 commentStamp: '<historical>' prior: 0!
Five-band parametric equalizer. This is a cascade-based EQ that processes the signal through a series of independent second-order filters (biquads), each with adjustable frequency, gain, and Q (bandwidth). The bands are overlapping and not constrained by fixed crossovers, allowing flexible shaping from broad tonal adjustments to narrow resonant boosts or cuts.

The implementation uses 5 second-order biquad filters in series: low-shelf (band 1), three peaking (bell) filters (bands 2–4), and high-shelf (band 5).!

!HPF commentStamp: '<historical>' prior: 0!
This is a second order (12 dB/oct) high-pass filter implemented with a biquad.!

!LPF commentStamp: '<historical>' prior: 0!
This is a second order (12 dB/oct) low-pass filter implemented with a biquad.!

!Transform2x commentStamp: 'len 4/Feb/2026 00:25:50' prior: 0!
An abstract superclass for transforms that internally do 2× oversampling. This is useful for implementing transforms that are not linear-time-invariant (LTI), such as saturation, wavefolding, or virtual analog filters.!

!TubeSaturator commentStamp: '<historical>' prior: 0!
This saturator emulates the characteristic soft-knee saturation of vacuum tube circuits. It emphasizes odd harmonics with a slightly sharper knee than standard soft saturation, producing a “round” and harmonically rich tone.

Tube saturation adds harmonics and weight to a sound, specially in the lower mids. It adds a grit or bite in the higher frequencies and enhances detail and presence without sounding too harsh.

This module is suited for musical overdrive on guitars, synths, or mix buses, where a classic tube-like warmth and gentle compression is desired.!

!DiodeClipper commentStamp: '<historical>' prior: 0!
This module implements a nonlinear clipping stage inspired by diode conduction. The signal remains linear below the forward voltage and transitions into soft clipping above it, producing a harder and more mid-focused character than smooth saturation.

It is well suited for aggressive distortion, synth and guitar-style clipping, and parallel distortion effects, with controllable asymmetry to shape even harmonics and bite.!

!HardClipper commentStamp: '<historical>' prior: 0!
This module applies a strict limiting nonlinearity to the input signal, producing immediate clipping at a ±1.0. This generates strong odd and even harmonics and introduces audible harshness at high levels.
It is best used for aggressive distortion effects, peak limiting, or to create characterful saturation in synths or drums.!

!SoftClipper commentStamp: '<historical>' prior: 0!
This module provides a soft-clipping stage using a smooth nonlinearity (softclip, Pade approxiimation of tanh). When bias is zero it is symmetric and introduces only odd harmonics. When bias is not zero it becomes asymmetric and introduces a mix of even and odd harmonics. Bias can be adjusted to shape the harmonic content and can optionally scale with drive for subtle dynamic behavior.

[...]
	n := self size.
	x1 := self at: i.
	x0 := i > 1 ifTrue: [self at: i - 1] ifFalse: [0.0].
	(i := i + 1) <= n
		ifTrue:
			[x2 := self at: i.
			x3 := (i := i + 1) <= n ifTrue: [self at: i] ifFalse: [0.0]]
		ifFalse: [x2 := x3 := 0.0].
	c0 := x0.
	c1 := 0.5 * (x2 - x0).
	c2 := x0 - (2.5 * x1) + (2.0 * x2) - (0.5 * x3).
	c3 := (0.5 * (x3 - x0)) + (1.5 * (x1 - x2)).
	^ ((((c3 * f) + c2) * f) + c1) * f + c0! !

!FloatArray methodsFor: '*signals' stamp: 'len 29/Mar/2026 16:59:57'!
atLinear: floatIndex
	"Linear interpolation."
	| i f start |
	i := floatIndex truncated.
	(f := floatIndex - i) = 0.0 ifTrue: [^ self at: i].
	start := self at: i.
	^ ((self at: i+1) - start) * f + start! !

!FloatArray methodsFor: '*signals' stamp: 'len 25/Mar/2026 19:01:20'!
atWrapCubic: floatIndex
	"Cubic Lagrange interpolation (4 points)."
	| i f x0 x1 x2 x3 c0 c1 c2 c3 |
	i := floatIndex truncated.
	(f := floatIndex - i) = 0.0 ifTrue: [^ self atWrap: i].
	x0 := self atWrap: i - 1.
	x1 := self atWrap: i.
	x2 := self atWrap: i + 1.
	x3 := self atWrap: i + 2.
	c0 := x0.
	c1 := 0.5 * (x2 - x0).
	c2 := x0 - (2.5 * x1) + (2.0 * x2) - (0.5 * x3).
	c3 := (0.5 * (x3 - x0)) + (1.5 * (x1 - x2)).
	^ ((((c3 * f) + c2) * f) + c1) * f + c0! !

!FloatArray methodsFor: '*signals' stamp: 'len 23/Mar/2026 16:33:30'!
atWrapLinear: floatIndex
	"Linear interpolation."
	| i f |
	i := floatIndex truncated.
	f := floatIndex - i.
	^ (1.0 - f) * (self atWrap: i) + (f * (self atWrap: i+1))! !

!Float32Array methodsFor: '*signals' stamp: 'len 30/Sep/2025 02:02:00'!
hardclip
	1 to: self size do: [:i| self at: i put: (self at: i) hardclip]! !

!Float32Array methodsFor: '*signals' stamp: 'len 24/Jan/2026 17:55:03'!
peak
	"Answer the peak absolute value."
	| answer |
	answer := 0.0.
	1 to: self size do: [:i| | x | (x := (self at: i) abs) > answer ifTrue: [answer := x]].
	^ answer! !

!Float32Array methodsFor: '*signals' stamp: 'len 18/Nov/2025 17:48:00'!
replaceWith: aFloat32Array
	self replaceFrom: 1 to: self size with: aFloat32Array startingAt: 1! !

!Float32Array methodsFor: '*signals' stamp: 'len 24/Jan/2026 15:49:52'!
rms
	"Answer the root mean square (RMS) of the receiver."
	^ ((self dot: self) / self size) sqrt! !

!Float32Array methodsFor: '*signals' stamp: 'len 29/Sep/2025 02:40:00'!
softclip
	1 to: self size do: [:i| self at: i put: (self at: i) softclip]! !

!CharacterSequence methodsFor: '*signals' stamp: 'len 27/Jan/2026 14:36:17'!
camelSeparatedWords
	| r w ch |
	r := self readStream.
	w := '' writeStream.
	[r atEnd] whileFalse:
		[w nextPut: (ch := r next).
		(ch isUppercase not and: [r atEnd not and: [r peek isUppercase]]) ifTrue: [w space]].
	^ w contents
! !

!CharacterSequence methodsFor: '*signals' stamp: 'len 15/Feb/2026 23:05:34'!
nameToSemitones
"
	(0 to: 127) allSatisfy: [:i| i semitonesToName nameToSemitones = i]
"
	| answer |
	answer := #(60 62 64 65 67 69 71) at: ('CDEFGAB' indexOf: self first asUppercase).
	(self includesAnyOf: '#♯') ifTrue: [answer := answer + 1].
	answer := (('0123456789' indexOf: self last) - 5) * 12 + answer.
	^ answer! !

!BlockClosure methodsFor: '*signals' stamp: 'len 3/Feb/2026 15:45:44'!
plot: aCollection
	^ PlotMorph new domain: aCollection; plot: self! !

!Number methodsFor: '*signals' stamp: 'len 13/Oct/2025 15:56:00'!
centsToRatio
	^ (self / 100.0) semitonesToRatio! !

!Number methodsFor: '*signals' stamp: 'len 31/Jan/2026 16:32:44'!
decibelsFSPrintString
	self < -59.9 ifTrue: [^ '-∞ dBFS'].
	self abs < 0.1 ifTrue: [^ '0 dBFS'].
	^ (self positive ifTrue: ['+'] ifFalse: ['']), (self printStringFractionDigits: 1), ' dBFS'! !

!Number methodsFor: '*signals' stamp: 'len 24/Jan/2026 15:56:54'!
decibelsPrintString
	self < -59.9 ifTrue: [^ '-∞ dB'].
	self abs < 0.1 ifTrue: [^ '0 dB'].
	^ (self positive ifTrue: ['+'] ifFalse: ['']), (self printStringFractionDigits: 1), ' dB'! !

!Number methodsFor: '*signals' stamp: 'len 17/Oct/2025 21:20:00'!
decibelsToLinear
	^ 10.0 raisedTo: self / 20.0! !

!Number methodsFor: '*signals' stamp: 'len 28/Nov/2025 12:51:00'!
hertzPrintString
	self < 5.0 ifTrue: [^ (self printStringFractionDigits: 2), ' Hz'].
	self < 100.0 ifTrue: [^ (self printStringFractionDigits: 1), ' Hz'].
	self < 1000.0 ifTrue: [^ self asInteger printString, ' Hz'].
	^ ((self / 1000.0) printStringFractionDigits: 1), ' kHz'! !

!Number methodsFor: '*signals' stamp: 'len 22/Oct/2025 15:24:00'!
hertzToSemitones
	^ 12.0 * (self / 440.0 log: 2) + 69.0! !

!Number methodsFor: '*signals' stamp: 'len 17/Oct/2025 21:20:00'!
linearToDecibels
	| x |
	x := self abs.
	x < 1.0e-12 ifTrue: [^ -120.0].
	^ 20.0 * x log! !

!Number methodsFor: '*signals' stamp: 'len 31/Jan/2026 16:32:57'!
linearToDecibelsFSPrintString
	^ self linearToDecibels decibelsFSPrintString! !

!Number methodsFor: '*signals' stamp: 'len 28/Nov/2025 13:02:00'!
linearToDecibelsPrintString
	^ self linearToDecibels decibelsPrintString! !

!Number methodsFor: '*signals' stamp: 'len 31/Mar/2026 17:48:41'!
linearToNormalizedLog
	"Map linear amplitude to a value between 0 and 1 in log scale."
	^ ((self abs + 1.0e-8) log * 20.0 + 80.0) / 80.0 min: 1.0 max: 0.0! !

!Number methodsFor: '*signals' stamp: 'len 13/Oct/2025 15:56:00'!
ratioToCents
	^ self ratioToSemitones * 100.0! !

!Number methodsFor: '*signals' stamp: 'len 13/Oct/2025 15:54:00'!
ratioToSemitones
	^ 12.0 * (self log: 2)! !

!Number methodsFor: '*signals' stamp: 'len 28/Nov/2025 12:54:00'!
secondsPrintString
	self abs < 0.01 ifTrue: [^ (self * 1000.0 printStringFractionDigits: 1), ' ms'].
	self abs < 1.0 ifTrue: [^ (self * 1000.0) asInteger printString, ' ms'].
	^ (self printStringFractionDigits: 1), ' s'! !

!Number methodsFor: '*signals' stamp: 'len 14/Jan/2026 17:04:15'!
semitonesOffsetPrintString
	self > 0.001 ifTrue: [^ '+', (self printStringFractionDigits: 2), ' st'].
	self < -0.001 ifTrue: [^ '-', (self abs printStringFractionDigits: 2), ' st'].
	^ '0.00 st'! !

!Number methodsFor: '*signals' stamp: 'len 22/Oct/2025 15:23:00'!
semitonesToHertz
	^ 440.0 * (2.0 raisedTo: self - 69.0 / 12.0)! !

!Number methodsFor: '*signals' stamp: 'len 6/Jan/2026 17:17:12'!
semitonesToName
	"Return a note name corresponding to the closest MIDI key.
	The answer is always 3 characters long."
	| midiKey |
	midiKey := self rounded.
	^ (#('C‐' 'C♯' 'D‐' 'D♯' 'E‐' 'F‐' 'F♯' 'G‐' 'G♯' 'A‐' 'A♯' 'B‐') at: (midiKey \\ 12) + 1) , (#('N' '0' '1' '2' '3' '4' '5' '6' '7' '8' '9') at: (midiKey // 12) + 1)! !

!Number methodsFor: '*signals' stamp: 'len 13/Oct/2025 15:54:00'!
semitonesToRatio
	^ 2.0 raisedTo: self / 12.0! !

!Number methodsFor: '*signals' stamp: 'len 29/Mar/2026 16:58:09'!
to: end at: fraction
	^ (end - self) * fraction + self! !

!Number methodsFor: '*signals' stamp: 'len 29/Mar/2026 23:27:35'!
to: end atExp: fraction
	^ (self ln to: end ln at: fraction) exp! !

!Number methodsFor: '*signals' stamp: 'len 1/Nov/2025 14:07:00'!
velocityToGain
	"Map a value velocity in the range 0.0..1.0 to a volume in the range 0.0..1.0."
	"Details: A quadratic function seems to give a good keyboard feel.
	(Originally from MIDISynthChannel>>convertVelocity:.)"
	| r |
	r := self squared * 1.344.
	r > 1.0 ifTrue: [^ 1.0].
	r < 0.08 ifTrue: [^ 0.08].
	^ r! !

!Float methodsFor: '*signals' stamp: 'len 23/Sep/2025 19:47:00'!
blamp: dt
	"This is the PolyBLAMP function used for removing aliasing from digitally generated waves.
	This is similar to PolyBLEP but for ramp discontinuities."
	| x |
	self < dt ifTrue: "start of cycle"
		[x := self / dt.
		^ -0.5 * x * x + x - 0.5].
	self > (1.0 - dt) ifTrue: "end of cycle"
		[x := (self - 1.0) / dt.
		^ 0.5 * x * x + x + 0.5].
	^ 0.0! !

!Float methodsFor: '*signals' stamp: 'len 16/Jan/2026 18:46:49'!
blep: dt
	"This is the PolyBLEP (Polynomial Band-Limited Step) function used for removing aliasing from digitally generated waves.
	This is a variation of BLEP (Band-Limited Step).
	The PolyBLEP technique smooths the sharp corners (discontinuities) in digital waveforms like sawtooth and square waves. These sharp corners create aliasing. PolyBLEP works by adding a small polynomial correction exactly where the discontinuity occurs, effectively rounding it off and removing the aliasing.
	Note: this method already has a baked-in scaling factor of 2, which corresponds to the jump of sawthood and pulse waves between -1 and 1."
	| x |
	self < dt ifTrue: "raising edge"
		[x := self / dt.
		^ x + x - (x*x) - 1.0].
	self > (1.0 - dt) ifTrue: "falling edge"
		[x := (self - 1.0) / dt.
		^ x * x + (x+x) + 1.0].
	^ 0.0! !

!Float methodsFor: '*signals' stamp: 'len 30/Sep/2025 02:03:00'!
hardclip
	self > 1.0 ifTrue: [^ 1.0].
	self < -1.0 ifTrue: [^ -1.0].
	^ self! !

!Float methodsFor: '*signals' stamp: 'len 17/Jan/2026 16:04:55'!
inverseSaw: dt
	"Answer a PolyBLEP antialiased inverse sawtooth wave.
	Note: the #blep: method already has a baked-in scaling factor of 2, which corresponds to the jump from -1 to 1."
	^ (2.0 * (1.0 - self) - 1.0) + (self blep: dt)! !

!Float methodsFor: '*signals' stamp: 'len 2/Feb/2026 18:25:07'!
parabolic: dt
	"Answer a PolyBLAMP antialiased parabolic wave.
	The parabolic wave is the result of integrating a sawtooth wave. It has a distinctive mellow character, somewhere between a sine and a triangle wave, but with richer harmonic series that rools off at 12 dB/oct (compared to 6 dB/oct for a saw)."
	^ ((4.0 * (self - 0.5) squared) + (8.0 * dt * (self blamp: dt)) - 0.5) * 1.95! !

!Float methodsFor: '*signals' stamp: 'len 16/Jan/2026 18:46:01'!
pulse: dt width: width
	"Answer a PolyBLEP antialiased pulse wave.
	Note: the #blep: method already has a baked-in scaling factor of 2, which corresponds to the jump between -1 and 1."
	^ (self < width ifTrue: [1.0] ifFalse: [-1.0]) + (self blep: dt) - (self - width + 1.0 \\ 1.0 blep: dt)! !

!Float methodsFor: '*signals' stamp: 'len 22/Jan/2026 04:22:11'!
pulseWidth: width
	"Answer a pulse wave."
	^ self < width ifTrue: [1.0] ifFalse: [-1.0]! !

!Float methodsFor: '*signals' stamp: 'len 22/Jan/2026 04:20:09'!
saw
	"Answer a sawtooth wave."
	^ 2.0 * self - 1.0! !

!Float methodsFor: '*signals' stamp: 'len 16/Jan/2026 18:43:19'!
saw: dt
	"Answer a PolyBLEP antialiased sawtooth wave.
	Note: the #blep: method already has a baked-in scaling factor of 2, which corresponds to the jump from -1 to 1."
	^ (2.0 * self - 1.0) - (self blep: dt)! !

!Float methodsFor: '*signals' stamp: 'len 24/Jan/2026 18:20:22'!
softclip
	"Perform a soft clip, distorting to a signal between -1.0 and 1.0.
	This is a Padé rational approximation of tanh.
	This method is about 2x faster than tanhclip."
	| square |
	self > 3.0 ifTrue: [^ 1.0].
	self < -3.0 ifTrue: [^ -1.0].
	square := self squared.
	^ (square + 27.0) * self / (square * 9.0 + 27.0)! !

!Float methodsFor: '*signals' stamp: 'len 16/Jan/2026 19:46:52'!
syncSaw: dt
	"Answer the sync part of a hard-sync'ed sawthooth wave."
	| naive jumpSize |
	naive := 2.0 * self - 1.0.
	"The jump is from the current naive value back to -1.0:"
	jumpSize := -1.0 - naive.
	"Note: We divide by 2.0 because the #blep: method is hardcoded for a range of 2.0:"
	^ -1.0 + (jumpSize / 2.0 * (self blep: dt))! !

!Float methodsFor: '*signals' stamp: 'len 28/Sep/2025 21:46:00'!
tanhclip
	"Perform an approximation of a tanh clip, distorting to a signal between -1.0 and 1.0.
	See softclip for a faster alternative."
	(self > -0.5 and: [self < 0.5]) ifTrue: [^ self].
	self >= 4.0 ifTrue: [^ 1.0].
	self <= -4.0 ifTrue: [^ -1.0].
	^ self tanh! !

!Float methodsFor: '*signals' stamp: 'len 16/Jan/2026 18:32:01'!
triangle
	"Answer a naive triangle wave."
	^ self < 0.5 ifTrue: [4.0 * self - 1.0] ifFalse: [-4.0 * self + 3.0]! !

!Float methodsFor: '*signals' stamp: 'len 16/Jan/2026 18:32:33'!
triangle: dt
	"Answer a PolyBLAMP antialiased triangle wave."
	^ (self < 0.5 ifTrue: [4.0 * self - 1.0] ifFalse: [-4.0 * self + 3.0]) + (((self blamp: dt) - (self - 0.5 \\ 1.0 blamp: dt)) * 8.0 * dt)! !

!Float methodsFor: '*signals' stamp: 'len 17/Jan/2026 16:39:26'!
triangle: dt skew: skew
	"Variable-slope triangle wave using PolyBLEP and PolyBLAMP antialiasing.
	This morphs from an falling saw at skew 0.0, to a triangle at skew 0.5, to a rising saw at skew 1.0."
	| naive dSlope |
	"Falling Saw (Skew is at or near 0.0). Jumps from -1.0 to +1.0 at phase wrap (+2.0 jump)"
	skew < dt ifTrue: [^ 1.0 - (2.0 * self) + (self blep: dt)].
	"Rising Saw (Skew is at or near 1.0). Jumps from +1.0 to -1.0 at phase wrap (-2.0 jump)"
	skew > (1.0 - dt) ifTrue: [^ (2.0 * self - 1.0) - (self blep: dt)].
	"Normal Triangle (Safe Zone). We use BLAMP for the slope corners."
	naive := self < skew ifTrue: [self / skew * 2.0 - 1.0 ] ifFalse: [1.0 - ((self - skew) / (1.0 - skew) * 2.0)].
	"Slope 1: 2/s, Slope 2: -2/(1-s). dSlope = Slope1 - Slope2"
	dSlope := (2.0 / skew) + (2.0 / (1.0 - skew)).
	^ naive + (dSlope * dt * (self blamp: dt)) - (dSlope * dt * ((self - skew + 1.0 \\ 1.0) blamp: dt))! !

!Float methodsFor: '*signals' stamp: 'len 22/Jan/2026 04:23:39'!
triangleSkew: skew
	"Variable-slope triangle wave.
	This morphs from an falling saw at skew 0.0, to a triangle at skew 0.5, to a rising saw at skew 1.0."
	^​ self < skew ifTrue: [self / skew * 2.0 - 1.0 ] ifFalse: [1.0 - ((self - skew) / (1.0 - skew) * 2.0)]! !

!Color methodsFor: '*signals' stamp: 'len 21/Dec/2025 21:32:58'!
darker: amount
	^ self lighter: amount negated! !

!Color methodsFor: '*signals' stamp: 'len 21/Dec/2025 21:33:37'!
lighter: amount
	^ self oklchDo: [:l :c :h| self class okl: (l + amount min: 1.0 max: 0.0) c: c h: h]! !

!Color methodsFor: '*signals' stamp: 'len 20/Feb/2026 19:41:22'!
lightnessAndChromaBy: aNumber
	^ self oklchDo: [:l :c :h| self class okl: l * aNumber c: c * aNumber h: h]! !

!Color methodsFor: '*signals' stamp: 'len 20/Feb/2026 19:25:25'!
oklch
	self oklchDo: [:l :c :h| ^ {l. c. h}]! !

!Color class methodsFor: '*signals' stamp: 'len 24/Jan/2026 22:48:45'!
amberAlert
	^ `Color fromHexString: '#FFAA00'`! !

!Color class methodsFor: '*signals' stamp: 'len 24/Jan/2026 22:48:56'!
azureBeam
	^ `Color fromHexString: '#4488FF'`! !

!Color class methodsFor: '*signals' stamp: 'len 29/Nov/2025 22:55:00'!
categoricalPalette
	"Palette with equal perceptual lighness (L=64) and chroma (C=85).
	All colors are ~90° apart and ordered to flow smoothly around the wheel."
	^ self categoricalPalette5! !

!Color class methodsFor: '*signals' stamp: 'len 29/Nov/2025 20:33:00'!
categoricalPalette1
	"Palette with equal perceptual lighness (L=64) and chroma (C=85).
	All colors are ~90° apart and ordered to flow smoothly around the wheel."
	^ #(cyanPhosphor violetBeam magentaGlow redCathode amberAlert emeraldScreen) collect: [:each| self perform: each]! !

!Color class methodsFor: '*signals' stamp: 'len 29/Nov/2025 19:12:00'!
categoricalPalette2
	^ #(cyanPhosphor magentaGlow limeScreen amberAlert violetBeam redCathode) collect: [:each| self perform: each]! !

!Color class methodsFor: '*signals' stamp: 'len 29/Nov/2025 19:12:00'!
categoricalPalette3
	^ #(cyanPhosphor violetBeam roseCathode coralPulse amberAlert emeraldScreen) collect: [:each| self perform: each]! !

!Color class methodsFor: '*signals' stamp: 'len 29/Nov/2025 19:13:00'!
categoricalPalette4
	^ #(cyanPhosphor violetBeam hotPinkGlow vermillionRay amberAlert emeraldScreen) collect: [:each| self perform: each]! !

!Color class methodsFor: '*signals' stamp: 'len 29/Nov/2025 22:55:00'!
categoricalPalette5
	^ #(cyanPhosphor azureBeam violetBeam hotPinkGlow vermillionRay amberAlert lemonPhosphor emeraldScreen) collect: [:each| self perform: each]! !

!Color class methodsFor: '*signals' stamp: 'len 24/Jan/2026 22:46:44'!
coralPulse
	^ `Color fromHexString: '#FF5544'`! !

!Color class methodsFor: '*signals' stamp: 'len 24/Jan/2026 22:46:35'!
cyanPhosphor
	^ `Color fromHexString: '#00D4FF'`! !

!Color class methodsFor: '*signals' stamp: 'len 29/Nov/2025 18:29:00'!
divergingPalette
	"For data with negative and positive values. Blue represents negative/cold, orange represents positive/hot."
	^ #('#0088FF' '#4DB8FF' '#888888' '#FFAA44' '#FF7700') collect: [:each| self fromHexString: each]! !

!Color class methodsFor: '*signals' stamp: 'len 24/Jan/2026 22:47:04'!
emeraldScreen
	^ `Color fromHexString: '#00DD88'`! !

!Color class methodsFor: '*signals' stamp: 'len 24/Jan/2026 22:47:18'!
hotPinkGlow
	^ `Color fromHexString: '#FF44BB'`! !

!Color class methodsFor: '*signals' stamp: 'len 24/Jan/2026 22:47:32'!
lemonPhosphor
	^ `Color fromHexString: '#DDFF00'`! !

!Color class methodsFor: '*signals' stamp: 'len 24/Jan/2026 22:47:51'!
lemonYellow
	^ `Color fromHexString: '#EEDD00'`! !

!Color class methodsFor: '*signals' stamp: 'len 24/Jan/2026 22:47:57'!
limeScreen
	^ `Color fromHexString: '#88FF00'`! !

!Color class methodsFor: '*signals' stamp: 'len 8/Mar/2026 22:53:46'!
magentaGlow
	^ `Color okl: 0.75 c: 0.2925533843465949 h: 340.3661356956038`
"	^ `Color fromHexString: '#FF00CC'`"! !

!Color class methodsFor: '*signals' stamp: 'len 24/Jan/2026 22:48:09'!
redCathode
	^ `Color fromHexString: '#FF4466'`! !

!Color class methodsFor: '*signals' stamp: 'len 24/Jan/2026 22:48:15'!
roseCathode
	^ `Color fromHexString: '#FF4488'`! !

!Color class methodsFor: '*signals' stamp: 'len 29/Nov/2025 18:26:00'!
sequentialBluePalette
	"Sequential blue palette (fixed hue, varying lightness for smooth gradients), for continuos data (low to high)."
	^ #('#001A33' '#003D66' '#0066AA' '#0099FF' '#33CCFF') collect: [:each| self fromHexString: each]! !

!Color class methodsFor: '*signals' stamp: 'len 29/Nov/2025 18:26:00'!
sequentialGreenPalette
	"Sequential green (phosphor) palette. Fixed hue, varying lightness for smooth gradients, for continuos data (low to high)."
	^ #('#001A0A' '#003D1A' '#00AA44' '#00FF66' '#88FFAA') collect: [:each| self fromHexString: each]! !

!Color class methodsFor: '*signals' stamp: 'len 24/Jan/2026 22:48:24'!
vermillionRay
	^ `Color fromHexString: '#FF4422'`! !

!Color class methodsFor: '*signals' stamp: 'len 8/Mar/2026 22:55:39'!
violetBeam
	^ `Color okl: 0.75 "0.5793982863755205" c: 0.4 h: 293.26079576193126`
"	^ `Color fromHexString: '#8844FF'`"! !

!UserInputEvent methodsFor: '*signals' stamp: 'len 9/Mar/2026 22:38:55'!
primaryModifierPressed
	"The primary modifier key is intended to be used in hotkeys for the main commands of an application. For example, with c/x/v for copy/cut/paste.
	In PC it is Control, and in Mac it is Command."
	^ Smalltalk platformName = 'Mac OS' ifTrue: [self commandAltKeyPressed] ifFalse: [self controlKeyPressed]! !

!UserInputEvent methodsFor: '*signals' stamp: 'len 9/Mar/2026 22:39:18'!
secondaryModifierPressed
	"The secondary modifier key is used for alternative or 'second option' commands.
	It is often a variation of the command of the primary modifier key.
	In PC it is Alt, and in Mac it is Option."
	^ Smalltalk platformName = 'Mac OS' ifTrue:  [self rawMacOptionKeyPressed] ifFalse: [self commandAltKeyPressed]! !

!KeyboardEvent methodsFor: '*signals' stamp: 'len 22/Feb/2026 16:01:46'!
isArrow
	"Answer true if the receiver is an arrow key event: arrow left/up/down/right."
	^ #[28 29 30 31] includes: keyValue! !

!KeyboardEvent methodsFor: '*signals' stamp: 'len 22/Feb/2026 16:00:47'!
isNavigation
	"Answer true if the receiver is a navigation key event: arrow left/up/down/right, page up/down, or home/end."
	^ #[1 4 11 12 28 29 30 31] includes: keyValue! !

!Morph methodsFor: '*signals' stamp: 'len 4/Mar/2026 14:54:49'!
bench
	| canvas form |
	form := self morphExtent ifNil: [Display] ifNotNil: [:aPoint| Form extent: aPoint depth: Display depth].
	canvas := VectorCanvas onForm: form.
	^ [self drawOn: canvas] bench! !

!Morph methodsFor: '*signals' stamp: 'len 4/Mar/2026 14:54:58'!
timeProfile
	| canvas form |
	form := self morphExtent ifNil: [Display] ifNotNil: [:aPoint| Form extent: aPoint depth: Display depth].
	canvas := VectorCanvas onForm: form.
	^ [100 timesRepeat: [self drawOn: canvas]] timeProfile! !
Wavetable initialize!
Supersaw initialize!
Multisample initialize!
Sample initialize!
Spectrogram initialize!
